
---------- Begin Simulation Statistics ----------
final_tick                               178273675500                       # Number of ticks from beginning of simulation (restored from checkpoints and never reset)
host_inst_rate                                 491230                       # Simulator instruction rate (inst/s)
host_mem_usage                                8496372                       # Number of bytes of host memory used
host_op_rate                                   572413                       # Simulator op (including micro ops) rate (op/s)
host_seconds                                   206.68                       # Real time elapsed on the host
host_tick_rate                              862574137                       # Simulator tick rate (ticks/s)
sim_freq                                 1000000000000                       # Frequency of simulated ticks
sim_insts                                   101525559                       # Number of instructions simulated
sim_ops                                     118304287                       # Number of ops (including micro ops) simulated
sim_seconds                                  0.178274                       # Number of seconds simulated
sim_ticks                                178273675500                       # Number of ticks simulated
system.cpu.branchPred.BTBCorrect                    0                       # Number of correct BTB predictions (this stat may not work properly.
system.cpu.branchPred.BTBHitPct             99.604555                       # BTB Hit Percentage
system.cpu.branchPred.BTBHits                17067632                       # Number of BTB hits
system.cpu.branchPred.BTBLookups             17135393                       # Number of BTB lookups
system.cpu.branchPred.RASInCorrect                  0                       # Number of incorrect RAS predictions.
system.cpu.branchPred.condIncorrect             66386                       # Number of conditional branches incorrect
system.cpu.branchPred.condPredicted          17135085                       # Number of conditional branches predicted
system.cpu.branchPred.indirectHits                  1                       # Number of indirect target hits.
system.cpu.branchPred.indirectLookups             144                       # Number of indirect predictor lookups.
system.cpu.branchPred.indirectMisses              143                       # Number of indirect misses.
system.cpu.branchPred.lookups                17136179                       # Number of BP lookups
system.cpu.branchPred.usedRAS                     303                       # Number of times the RAS was used to get a target.
system.cpu.branchPredindirectMispredicted           60                       # Number of mispredicted indirect branches.
system.cpu.committedInsts                   101525559                       # Number of instructions committed
system.cpu.committedOps                     118304287                       # Number of ops (including micro ops) committed
system.cpu.cpi                               3.511897                       # CPI: cycles per instruction
system.cpu.dcache.prefetcher.num_hwpf_issued      6824607                       # number of hwpf issued
system.cpu.dcache.prefetcher.pfBufferHit        74436                       # number of redundant prefetches already in prefetch queue
system.cpu.dcache.prefetcher.pfIdentified      6926458                       # number of prefetch candidates identified
system.cpu.dcache.prefetcher.pfInCache              0                       # number of redundant prefetches already in cache/mshr dropped
system.cpu.dcache.prefetcher.pfRemovedFull            0                       # number of prefetches dropped due to prefetch queue size
system.cpu.dcache.prefetcher.pfSpanPage      18102366                       # number of prefetches that crossed the page
system.cpu.discardedOps                        437668                       # Number of ops (including micro ops) which were discarded before commit
system.cpu.dtb.accesses                             0                       # DTB accesses
system.cpu.dtb.align_faults                         0                       # Number of TLB faults due to alignment restrictions
system.cpu.dtb.domain_faults                        0                       # Number of TLB faults due to domain restrictions
system.cpu.dtb.flush_entries                        0                       # Number of entries that have been flushed from TLB
system.cpu.dtb.flush_tlb                            0                       # Number of times complete TLB was flushed
system.cpu.dtb.flush_tlb_asid                       0                       # Number of times TLB was flushed by ASID
system.cpu.dtb.flush_tlb_mva                        0                       # Number of times TLB was flushed by MVA
system.cpu.dtb.flush_tlb_mva_asid                   0                       # Number of times TLB was flushed by MVA & ASID
system.cpu.dtb.hits                                 0                       # DTB hits
system.cpu.dtb.inst_accesses                        0                       # ITB inst accesses
system.cpu.dtb.inst_hits                            0                       # ITB inst hits
system.cpu.dtb.inst_misses                          0                       # ITB inst misses
system.cpu.dtb.misses                               0                       # DTB misses
system.cpu.dtb.perms_faults                         0                       # Number of TLB faults due to permissions restrictions
system.cpu.dtb.prefetch_faults                      0                       # Number of TLB faults due to prefetch
system.cpu.dtb.read_accesses                        0                       # DTB read accesses
system.cpu.dtb.read_hits                            0                       # DTB read hits
system.cpu.dtb.read_misses                          0                       # DTB read misses
system.cpu.dtb.stage2_mmu.stage2_tlb.accesses            0                       # DTB accesses
system.cpu.dtb.stage2_mmu.stage2_tlb.align_faults            0                       # Number of TLB faults due to alignment restrictions
system.cpu.dtb.stage2_mmu.stage2_tlb.domain_faults            0                       # Number of TLB faults due to domain restrictions
system.cpu.dtb.stage2_mmu.stage2_tlb.flush_entries            0                       # Number of entries that have been flushed from TLB
system.cpu.dtb.stage2_mmu.stage2_tlb.flush_tlb            0                       # Number of times complete TLB was flushed
system.cpu.dtb.stage2_mmu.stage2_tlb.flush_tlb_asid            0                       # Number of times TLB was flushed by ASID
system.cpu.dtb.stage2_mmu.stage2_tlb.flush_tlb_mva            0                       # Number of times TLB was flushed by MVA
system.cpu.dtb.stage2_mmu.stage2_tlb.flush_tlb_mva_asid            0                       # Number of times TLB was flushed by MVA & ASID
system.cpu.dtb.stage2_mmu.stage2_tlb.hits            0                       # DTB hits
system.cpu.dtb.stage2_mmu.stage2_tlb.inst_accesses            0                       # ITB inst accesses
system.cpu.dtb.stage2_mmu.stage2_tlb.inst_hits            0                       # ITB inst hits
system.cpu.dtb.stage2_mmu.stage2_tlb.inst_misses            0                       # ITB inst misses
system.cpu.dtb.stage2_mmu.stage2_tlb.misses            0                       # DTB misses
system.cpu.dtb.stage2_mmu.stage2_tlb.perms_faults            0                       # Number of TLB faults due to permissions restrictions
system.cpu.dtb.stage2_mmu.stage2_tlb.prefetch_faults            0                       # Number of TLB faults due to prefetch
system.cpu.dtb.stage2_mmu.stage2_tlb.read_accesses            0                       # DTB read accesses
system.cpu.dtb.stage2_mmu.stage2_tlb.read_hits            0                       # DTB read hits
system.cpu.dtb.stage2_mmu.stage2_tlb.read_misses            0                       # DTB read misses
system.cpu.dtb.stage2_mmu.stage2_tlb.walker.walkRequestOrigin_Requested::Data            0                       # Table walker requests started/completed, data/inst
system.cpu.dtb.stage2_mmu.stage2_tlb.walker.walkRequestOrigin_Requested::Inst            0                       # Table walker requests started/completed, data/inst
system.cpu.dtb.stage2_mmu.stage2_tlb.walker.walkRequestOrigin_Requested::total            0                       # Table walker requests started/completed, data/inst
system.cpu.dtb.stage2_mmu.stage2_tlb.walker.walkRequestOrigin_Completed::Data            0                       # Table walker requests started/completed, data/inst
system.cpu.dtb.stage2_mmu.stage2_tlb.walker.walkRequestOrigin_Completed::Inst            0                       # Table walker requests started/completed, data/inst
system.cpu.dtb.stage2_mmu.stage2_tlb.walker.walkRequestOrigin_Completed::total            0                       # Table walker requests started/completed, data/inst
system.cpu.dtb.stage2_mmu.stage2_tlb.walker.walkRequestOrigin::total            0                       # Table walker requests started/completed, data/inst
system.cpu.dtb.stage2_mmu.stage2_tlb.walker.walks            0                       # Table walker walks requested
system.cpu.dtb.stage2_mmu.stage2_tlb.write_accesses            0                       # DTB write accesses
system.cpu.dtb.stage2_mmu.stage2_tlb.write_hits            0                       # DTB write hits
system.cpu.dtb.stage2_mmu.stage2_tlb.write_misses            0                       # DTB write misses
system.cpu.dtb.walker.walkRequestOrigin_Requested::Data            0                       # Table walker requests started/completed, data/inst
system.cpu.dtb.walker.walkRequestOrigin_Requested::Inst            0                       # Table walker requests started/completed, data/inst
system.cpu.dtb.walker.walkRequestOrigin_Requested::total            0                       # Table walker requests started/completed, data/inst
system.cpu.dtb.walker.walkRequestOrigin_Completed::Data            0                       # Table walker requests started/completed, data/inst
system.cpu.dtb.walker.walkRequestOrigin_Completed::Inst            0                       # Table walker requests started/completed, data/inst
system.cpu.dtb.walker.walkRequestOrigin_Completed::total            0                       # Table walker requests started/completed, data/inst
system.cpu.dtb.walker.walkRequestOrigin::total            0                       # Table walker requests started/completed, data/inst
system.cpu.dtb.walker.walks                         0                       # Table walker walks requested
system.cpu.dtb.write_accesses                       0                       # DTB write accesses
system.cpu.dtb.write_hits                           0                       # DTB write hits
system.cpu.dtb.write_misses                         0                       # DTB write misses
system.cpu.fetch2.amo_instructions                 29                       # Number of memory atomic instructions successfully decoded
system.cpu.fetch2.fp_instructions                   0                       # Number of floating point instructions successfully decoded
system.cpu.fetch2.int_instructions           34539613                       # Number of integer instructions successfully decoded
system.cpu.fetch2.load_instructions          17069433                       # Number of memory load instructions successfully decoded
system.cpu.fetch2.store_instructions            66352                       # Number of memory store instructions successfully decoded
system.cpu.fetch2.vec_instructions           17001837                       # Number of SIMD instructions successfully decoded
system.cpu.idleCycles                       156532291                       # Total number of cycles that the object has spent stopped
system.cpu.ipc                               0.284746                       # IPC: instructions per cycle
system.cpu.itb.accesses                             0                       # DTB accesses
system.cpu.itb.align_faults                         0                       # Number of TLB faults due to alignment restrictions
system.cpu.itb.domain_faults                        0                       # Number of TLB faults due to domain restrictions
system.cpu.itb.flush_entries                        0                       # Number of entries that have been flushed from TLB
system.cpu.itb.flush_tlb                            0                       # Number of times complete TLB was flushed
system.cpu.itb.flush_tlb_asid                       0                       # Number of times TLB was flushed by ASID
system.cpu.itb.flush_tlb_mva                        0                       # Number of times TLB was flushed by MVA
system.cpu.itb.flush_tlb_mva_asid                   0                       # Number of times TLB was flushed by MVA & ASID
system.cpu.itb.hits                                 0                       # DTB hits
system.cpu.itb.inst_accesses                        0                       # ITB inst accesses
system.cpu.itb.inst_hits                            0                       # ITB inst hits
system.cpu.itb.inst_misses                          0                       # ITB inst misses
system.cpu.itb.misses                               0                       # DTB misses
system.cpu.itb.perms_faults                         0                       # Number of TLB faults due to permissions restrictions
system.cpu.itb.prefetch_faults                      0                       # Number of TLB faults due to prefetch
system.cpu.itb.read_accesses                        0                       # DTB read accesses
system.cpu.itb.read_hits                            0                       # DTB read hits
system.cpu.itb.read_misses                          0                       # DTB read misses
system.cpu.itb.stage2_mmu.stage2_tlb.accesses            0                       # DTB accesses
system.cpu.itb.stage2_mmu.stage2_tlb.align_faults            0                       # Number of TLB faults due to alignment restrictions
system.cpu.itb.stage2_mmu.stage2_tlb.domain_faults            0                       # Number of TLB faults due to domain restrictions
system.cpu.itb.stage2_mmu.stage2_tlb.flush_entries            0                       # Number of entries that have been flushed from TLB
system.cpu.itb.stage2_mmu.stage2_tlb.flush_tlb            0                       # Number of times complete TLB was flushed
system.cpu.itb.stage2_mmu.stage2_tlb.flush_tlb_asid            0                       # Number of times TLB was flushed by ASID
system.cpu.itb.stage2_mmu.stage2_tlb.flush_tlb_mva            0                       # Number of times TLB was flushed by MVA
system.cpu.itb.stage2_mmu.stage2_tlb.flush_tlb_mva_asid            0                       # Number of times TLB was flushed by MVA & ASID
system.cpu.itb.stage2_mmu.stage2_tlb.hits            0                       # DTB hits
system.cpu.itb.stage2_mmu.stage2_tlb.inst_accesses            0                       # ITB inst accesses
system.cpu.itb.stage2_mmu.stage2_tlb.inst_hits            0                       # ITB inst hits
system.cpu.itb.stage2_mmu.stage2_tlb.inst_misses            0                       # ITB inst misses
system.cpu.itb.stage2_mmu.stage2_tlb.misses            0                       # DTB misses
system.cpu.itb.stage2_mmu.stage2_tlb.perms_faults            0                       # Number of TLB faults due to permissions restrictions
system.cpu.itb.stage2_mmu.stage2_tlb.prefetch_faults            0                       # Number of TLB faults due to prefetch
system.cpu.itb.stage2_mmu.stage2_tlb.read_accesses            0                       # DTB read accesses
system.cpu.itb.stage2_mmu.stage2_tlb.read_hits            0                       # DTB read hits
system.cpu.itb.stage2_mmu.stage2_tlb.read_misses            0                       # DTB read misses
system.cpu.itb.stage2_mmu.stage2_tlb.walker.walkRequestOrigin_Requested::Data            0                       # Table walker requests started/completed, data/inst
system.cpu.itb.stage2_mmu.stage2_tlb.walker.walkRequestOrigin_Requested::Inst            0                       # Table walker requests started/completed, data/inst
system.cpu.itb.stage2_mmu.stage2_tlb.walker.walkRequestOrigin_Requested::total            0                       # Table walker requests started/completed, data/inst
system.cpu.itb.stage2_mmu.stage2_tlb.walker.walkRequestOrigin_Completed::Data            0                       # Table walker requests started/completed, data/inst
system.cpu.itb.stage2_mmu.stage2_tlb.walker.walkRequestOrigin_Completed::Inst            0                       # Table walker requests started/completed, data/inst
system.cpu.itb.stage2_mmu.stage2_tlb.walker.walkRequestOrigin_Completed::total            0                       # Table walker requests started/completed, data/inst
system.cpu.itb.stage2_mmu.stage2_tlb.walker.walkRequestOrigin::total            0                       # Table walker requests started/completed, data/inst
system.cpu.itb.stage2_mmu.stage2_tlb.walker.walks            0                       # Table walker walks requested
system.cpu.itb.stage2_mmu.stage2_tlb.write_accesses            0                       # DTB write accesses
system.cpu.itb.stage2_mmu.stage2_tlb.write_hits            0                       # DTB write hits
system.cpu.itb.stage2_mmu.stage2_tlb.write_misses            0                       # DTB write misses
system.cpu.itb.walker.walkRequestOrigin_Requested::Data            0                       # Table walker requests started/completed, data/inst
system.cpu.itb.walker.walkRequestOrigin_Requested::Inst            0                       # Table walker requests started/completed, data/inst
system.cpu.itb.walker.walkRequestOrigin_Requested::total            0                       # Table walker requests started/completed, data/inst
system.cpu.itb.walker.walkRequestOrigin_Completed::Data            0                       # Table walker requests started/completed, data/inst
system.cpu.itb.walker.walkRequestOrigin_Completed::Inst            0                       # Table walker requests started/completed, data/inst
system.cpu.itb.walker.walkRequestOrigin_Completed::total            0                       # Table walker requests started/completed, data/inst
system.cpu.itb.walker.walkRequestOrigin::total            0                       # Table walker requests started/completed, data/inst
system.cpu.itb.walker.walks                         0                       # Table walker walks requested
system.cpu.itb.write_accesses                       0                       # DTB write accesses
system.cpu.itb.write_hits                           0                       # DTB write hits
system.cpu.itb.write_misses                         0                       # DTB write misses
system.cpu.numCycles                        356547351                       # number of cpu cycles simulated
system.cpu.numFetchSuspends                         0                       # Number of times Execute suspended instruction fetching
system.cpu.numWorkItemsCompleted                    0                       # number of work items this cpu completed
system.cpu.numWorkItemsStarted                      0                       # number of work items this cpu started
system.cpu.op_class_0::No_OpClass                  33      0.00%      0.00% # Class of committed instruction
system.cpu.op_class_0::IntAlu                67838720     57.34%     57.34% # Class of committed instruction
system.cpu.op_class_0::IntMult                      9      0.00%     57.34% # Class of committed instruction
system.cpu.op_class_0::IntDiv                       3      0.00%     57.34% # Class of committed instruction
system.cpu.op_class_0::FloatAdd                     0      0.00%     57.34% # Class of committed instruction
system.cpu.op_class_0::FloatCmp                     0      0.00%     57.34% # Class of committed instruction
system.cpu.op_class_0::FloatCvt                     1      0.00%     57.34% # Class of committed instruction
system.cpu.op_class_0::FloatMult                    0      0.00%     57.34% # Class of committed instruction
system.cpu.op_class_0::FloatMultAcc          16777216     14.18%     71.52% # Class of committed instruction
system.cpu.op_class_0::FloatDiv                     1      0.00%     71.52% # Class of committed instruction
system.cpu.op_class_0::FloatMisc                    1      0.00%     71.52% # Class of committed instruction
system.cpu.op_class_0::FloatSqrt                    0      0.00%     71.52% # Class of committed instruction
system.cpu.op_class_0::SimdAdd                     13      0.00%     71.52% # Class of committed instruction
system.cpu.op_class_0::SimdAddAcc                   0      0.00%     71.52% # Class of committed instruction
system.cpu.op_class_0::SimdAlu                     12      0.00%     71.52% # Class of committed instruction
system.cpu.op_class_0::SimdCmp                     12      0.00%     71.52% # Class of committed instruction
system.cpu.op_class_0::SimdCvt                      0      0.00%     71.52% # Class of committed instruction
system.cpu.op_class_0::SimdMisc                    15      0.00%     71.52% # Class of committed instruction
system.cpu.op_class_0::SimdMult                     0      0.00%     71.52% # Class of committed instruction
system.cpu.op_class_0::SimdMultAcc                  0      0.00%     71.52% # Class of committed instruction
system.cpu.op_class_0::SimdShift                    0      0.00%     71.52% # Class of committed instruction
system.cpu.op_class_0::SimdShiftAcc                 0      0.00%     71.52% # Class of committed instruction
system.cpu.op_class_0::SimdDiv                      0      0.00%     71.52% # Class of committed instruction
system.cpu.op_class_0::SimdSqrt                     0      0.00%     71.52% # Class of committed instruction
system.cpu.op_class_0::SimdFloatAdd                 0      0.00%     71.52% # Class of committed instruction
system.cpu.op_class_0::SimdFloatAlu                 0      0.00%     71.52% # Class of committed instruction
system.cpu.op_class_0::SimdFloatCmp                 0      0.00%     71.52% # Class of committed instruction
system.cpu.op_class_0::SimdFloatCvt                 0      0.00%     71.52% # Class of committed instruction
system.cpu.op_class_0::SimdFloatDiv                 0      0.00%     71.52% # Class of committed instruction
system.cpu.op_class_0::SimdFloatMisc                0      0.00%     71.52% # Class of committed instruction
system.cpu.op_class_0::SimdFloatMult                0      0.00%     71.52% # Class of committed instruction
system.cpu.op_class_0::SimdFloatMultAcc             0      0.00%     71.52% # Class of committed instruction
system.cpu.op_class_0::SimdFloatSqrt                0      0.00%     71.52% # Class of committed instruction
system.cpu.op_class_0::SimdReduceAdd                0      0.00%     71.52% # Class of committed instruction
system.cpu.op_class_0::SimdReduceAlu                0      0.00%     71.52% # Class of committed instruction
system.cpu.op_class_0::SimdReduceCmp                0      0.00%     71.52% # Class of committed instruction
system.cpu.op_class_0::SimdFloatReduceAdd            0      0.00%     71.52% # Class of committed instruction
system.cpu.op_class_0::SimdFloatReduceCmp            0      0.00%     71.52% # Class of committed instruction
system.cpu.op_class_0::SimdAes                      0      0.00%     71.52% # Class of committed instruction
system.cpu.op_class_0::SimdAesMix                   0      0.00%     71.52% # Class of committed instruction
system.cpu.op_class_0::SimdSha1Hash                 0      0.00%     71.52% # Class of committed instruction
system.cpu.op_class_0::SimdSha1Hash2                0      0.00%     71.52% # Class of committed instruction
system.cpu.op_class_0::SimdSha256Hash               0      0.00%     71.52% # Class of committed instruction
system.cpu.op_class_0::SimdSha256Hash2              0      0.00%     71.52% # Class of committed instruction
system.cpu.op_class_0::SimdShaSigma2                0      0.00%     71.52% # Class of committed instruction
system.cpu.op_class_0::SimdShaSigma3                0      0.00%     71.52% # Class of committed instruction
system.cpu.op_class_0::SimdPredAlu                  0      0.00%     71.52% # Class of committed instruction
system.cpu.op_class_0::MemRead               33621209     28.42%     99.94% # Class of committed instruction
system.cpu.op_class_0::MemWrite                 67042      0.06%    100.00% # Class of committed instruction
system.cpu.op_class_0::FloatMemRead                 0      0.00%    100.00% # Class of committed instruction
system.cpu.op_class_0::FloatMemWrite                0      0.00%    100.00% # Class of committed instruction
system.cpu.op_class_0::IprAccess                    0      0.00%    100.00% # Class of committed instruction
system.cpu.op_class_0::InstPrefetch                 0      0.00%    100.00% # Class of committed instruction
system.cpu.op_class_0::total                118304287                       # Class of committed instruction
system.cpu.tickCycles                       200015060                       # Number of cycles that the object actually ticked
system.cpu.workload.numSyscalls                    16                       # Number of system calls
system.l2.prefetcher.num_hwpf_issued            11738                       # number of hwpf issued
system.l2.prefetcher.pfBufferHit                   10                       # number of redundant prefetches already in prefetch queue
system.l2.prefetcher.pfIdentified               11760                       # number of prefetch candidates identified
system.l2.prefetcher.pfInCache                      0                       # number of redundant prefetches already in cache/mshr dropped
system.l2.prefetcher.pfRemovedFull                  0                       # number of prefetches dropped due to prefetch queue size
system.l2.prefetcher.pfSpanPage                 11664                       # number of prefetches that crossed the page
system.membus.snoop_filter.hit_multi_requests            0                       # Number of requests hitting in the snoop filter with multiple (>1) holders of the requested data.
system.membus.snoop_filter.hit_multi_snoops            0                       # Number of snoops hitting in the snoop filter with multiple (>1) holders of the requested data.
system.membus.snoop_filter.hit_single_requests            0                       # Number of requests hitting in the snoop filter with a single holder of the requested data.
system.membus.snoop_filter.hit_single_snoops            0                       # Number of snoops hitting in the snoop filter with a single holder of the requested data.
system.membus.snoop_filter.tot_requests         13092                       # Total number of requests made to the snoop filter.
system.membus.snoop_filter.tot_snoops               0                       # Total number of snoops made to the snoop filter.
system.tol2bus.snoop_filter.hit_multi_requests            4                       # Number of requests hitting in the snoop filter with multiple (>1) holders of the requested data.
system.tol2bus.snoop_filter.hit_multi_snoops            0                       # Number of snoops hitting in the snoop filter with multiple (>1) holders of the requested data.
system.tol2bus.snoop_filter.hit_single_requests     16647688                       # Number of requests hitting in the snoop filter with a single holder of the requested data.
system.tol2bus.snoop_filter.hit_single_snoops            5                       # Number of snoops hitting in the snoop filter with a single holder of the requested data.
system.tol2bus.snoop_filter.tot_requests     33297793                       # Total number of requests made to the snoop filter.
system.tol2bus.snoop_filter.tot_snoops              5                       # Total number of snoops made to the snoop filter.
system.membus.pwrStateResidencyTicks::UNDEFINED 178273675500                       # Cumulative time (in ticks) in various power states
system.membus.trans_dist::ReadResp              13006                       # Transaction distribution
system.membus.trans_dist::ReadExReq                82                       # Transaction distribution
system.membus.trans_dist::ReadExResp               82                       # Transaction distribution
system.membus.trans_dist::ReadSharedReq         13006                       # Transaction distribution
system.membus.trans_dist::InvalidateReq             4                       # Transaction distribution
system.membus.pkt_count_system.l2.mem_side::system.mem_ctrls.port        26180                       # Packet count per connected master and slave (bytes)
system.membus.pkt_count::total                  26180                       # Packet count per connected master and slave (bytes)
system.membus.pkt_size_system.l2.mem_side::system.mem_ctrls.port       837632                       # Cumulative packet size per connected master and slave (bytes)
system.membus.pkt_size::total                  837632                       # Cumulative packet size per connected master and slave (bytes)
system.membus.snoops                                0                       # Total snoops (count)
system.membus.snoopTraffic                          0                       # Total snoop traffic (bytes)
system.membus.snoop_fanout::samples             13092                       # Request fanout histogram
system.membus.snoop_fanout::mean                    0                       # Request fanout histogram
system.membus.snoop_fanout::stdev                   0                       # Request fanout histogram
system.membus.snoop_fanout::underflows              0      0.00%      0.00% # Request fanout histogram
system.membus.snoop_fanout::0                   13092    100.00%    100.00% # Request fanout histogram
system.membus.snoop_fanout::1                       0      0.00%    100.00% # Request fanout histogram
system.membus.snoop_fanout::overflows               0      0.00%    100.00% # Request fanout histogram
system.membus.snoop_fanout::min_value               0                       # Request fanout histogram
system.membus.snoop_fanout::max_value               0                       # Request fanout histogram
system.membus.snoop_fanout::total               13092                       # Request fanout histogram
system.membus.respLayer1.occupancy           67599498                       # Layer occupancy (ticks)
system.membus.respLayer1.utilization              0.0                       # Layer utilization (%)
system.membus.reqLayer0.occupancy            15977934                       # Layer occupancy (ticks)
system.membus.reqLayer0.utilization               0.0                       # Layer utilization (%)
system.tol2bus.pwrStateResidencyTicks::UNDEFINED 178273675500                       # Cumulative time (in ticks) in various power states
system.tol2bus.trans_dist::ReadResp          16584686                       # Transaction distribution
system.tol2bus.trans_dist::WritebackDirty        68437                       # Transaction distribution
system.tol2bus.trans_dist::WritebackClean          168                       # Transaction distribution
system.tol2bus.trans_dist::CleanEvict        16579088                       # Transaction distribution
system.tol2bus.trans_dist::HardPFReq            10122                       # Transaction distribution
system.tol2bus.trans_dist::ReadExReq            65415                       # Transaction distribution
system.tol2bus.trans_dist::ReadExResp           65415                       # Transaction distribution
system.tol2bus.trans_dist::ReadCleanReq           537                       # Transaction distribution
system.tol2bus.trans_dist::ReadSharedReq     16584149                       # Transaction distribution
system.tol2bus.trans_dist::InvalidateReq            4                       # Transaction distribution
system.tol2bus.trans_dist::InvalidateResp            4                       # Transaction distribution
system.tol2bus.pkt_count_system.cpu.icache.mem_side::system.l2.cpu_side         1242                       # Packet count per connected master and slave (bytes)
system.tol2bus.pkt_count_system.cpu.dcache.mem_side::system.l2.cpu_side     49946656                       # Packet count per connected master and slave (bytes)
system.tol2bus.pkt_count::total              49947898                       # Packet count per connected master and slave (bytes)
system.tol2bus.pkt_size_system.cpu.icache.mem_side::system.l2.cpu_side        45120                       # Cumulative packet size per connected master and slave (bytes)
system.tol2bus.pkt_size_system.cpu.dcache.mem_side::system.l2.cpu_side   1069952064                       # Cumulative packet size per connected master and slave (bytes)
system.tol2bus.pkt_size::total             1069997184                       # Cumulative packet size per connected master and slave (bytes)
system.tol2bus.snoops                           10127                       # Total snoops (count)
system.tol2bus.snoopTraffic                         0                       # Total snoop traffic (bytes)
system.tol2bus.snoop_fanout::samples         16660232                       # Request fanout histogram
system.tol2bus.snoop_fanout::mean            0.000001                       # Request fanout histogram
system.tol2bus.snoop_fanout::stdev           0.000735                       # Request fanout histogram
system.tol2bus.snoop_fanout::underflows             0      0.00%      0.00% # Request fanout histogram
system.tol2bus.snoop_fanout::0               16660223    100.00%    100.00% # Request fanout histogram
system.tol2bus.snoop_fanout::1                      9      0.00%    100.00% # Request fanout histogram
system.tol2bus.snoop_fanout::2                      0      0.00%    100.00% # Request fanout histogram
system.tol2bus.snoop_fanout::overflows              0      0.00%    100.00% # Request fanout histogram
system.tol2bus.snoop_fanout::min_value              0                       # Request fanout histogram
system.tol2bus.snoop_fanout::max_value              1                       # Request fanout histogram
system.tol2bus.snoop_fanout::total           16660232                       # Request fanout histogram
system.tol2bus.reqLayer0.occupancy        18644325923                       # Layer occupancy (ticks)
system.tol2bus.reqLayer0.utilization             10.5                       # Layer utilization (%)
system.tol2bus.respLayer1.occupancy       24974348499                       # Layer occupancy (ticks)
system.tol2bus.respLayer1.utilization            14.0                       # Layer utilization (%)
system.tol2bus.respLayer0.occupancy            805500                       # Layer occupancy (ticks)
system.tol2bus.respLayer0.utilization             0.0                       # Layer utilization (%)
system.voltage_domain.voltage                       1                       # Voltage in Volts
system.clk_domain.clock                          1000                       # Clock period in ticks
system.l2.pwrStateResidencyTicks::UNDEFINED 178273675500                       # Cumulative time (in ticks) in various power states
system.l2.demand_hits::.cpu.inst                   44                       # number of demand (read+write) hits
system.l2.demand_hits::.cpu.data             10412161                       # number of demand (read+write) hits
system.l2.demand_hits::.cpu.dcache.prefetcher      6231351                       # number of demand (read+write) hits
system.l2.demand_hits::total                 16643556                       # number of demand (read+write) hits
system.l2.overall_hits::.cpu.inst                  44                       # number of overall hits
system.l2.overall_hits::.cpu.data            10412161                       # number of overall hits
system.l2.overall_hits::.cpu.dcache.prefetcher      6231351                       # number of overall hits
system.l2.overall_hits::total                16643556                       # number of overall hits
system.l2.demand_misses::.cpu.inst                493                       # number of demand (read+write) misses
system.l2.demand_misses::.cpu.data               2477                       # number of demand (read+write) misses
system.l2.demand_misses::.cpu.dcache.prefetcher         3575                       # number of demand (read+write) misses
system.l2.demand_misses::total                   6545                       # number of demand (read+write) misses
system.l2.overall_misses::.cpu.inst               493                       # number of overall misses
system.l2.overall_misses::.cpu.data              2477                       # number of overall misses
system.l2.overall_misses::.cpu.dcache.prefetcher         3575                       # number of overall misses
system.l2.overall_misses::total                  6545                       # number of overall misses
system.l2.demand_miss_latency::.cpu.inst     37323000                       # number of demand (read+write) miss cycles
system.l2.demand_miss_latency::.cpu.data    198543000                       # number of demand (read+write) miss cycles
system.l2.demand_miss_latency::.cpu.dcache.prefetcher    295155961                       # number of demand (read+write) miss cycles
system.l2.demand_miss_latency::total        531021961                       # number of demand (read+write) miss cycles
system.l2.overall_miss_latency::.cpu.inst     37323000                       # number of overall miss cycles
system.l2.overall_miss_latency::.cpu.data    198543000                       # number of overall miss cycles
system.l2.overall_miss_latency::.cpu.dcache.prefetcher    295155961                       # number of overall miss cycles
system.l2.overall_miss_latency::total       531021961                       # number of overall miss cycles
system.l2.demand_accesses::.cpu.inst              537                       # number of demand (read+write) accesses
system.l2.demand_accesses::.cpu.data         10414638                       # number of demand (read+write) accesses
system.l2.demand_accesses::.cpu.dcache.prefetcher      6234926                       # number of demand (read+write) accesses
system.l2.demand_accesses::total             16650101                       # number of demand (read+write) accesses
system.l2.overall_accesses::.cpu.inst             537                       # number of overall (read+write) accesses
system.l2.overall_accesses::.cpu.data        10414638                       # number of overall (read+write) accesses
system.l2.overall_accesses::.cpu.dcache.prefetcher      6234926                       # number of overall (read+write) accesses
system.l2.overall_accesses::total            16650101                       # number of overall (read+write) accesses
system.l2.demand_miss_rate::.cpu.inst        0.918063                       # miss rate for demand accesses
system.l2.demand_miss_rate::.cpu.data        0.000238                       # miss rate for demand accesses
system.l2.demand_miss_rate::.cpu.dcache.prefetcher     0.000573                       # miss rate for demand accesses
system.l2.demand_miss_rate::total            0.000393                       # miss rate for demand accesses
system.l2.overall_miss_rate::.cpu.inst       0.918063                       # miss rate for overall accesses
system.l2.overall_miss_rate::.cpu.data       0.000238                       # miss rate for overall accesses
system.l2.overall_miss_rate::.cpu.dcache.prefetcher     0.000573                       # miss rate for overall accesses
system.l2.overall_miss_rate::total           0.000393                       # miss rate for overall accesses
system.l2.demand_avg_miss_latency::.cpu.inst 75705.882353                       # average overall miss latency
system.l2.demand_avg_miss_latency::.cpu.data 80154.622527                       # average overall miss latency
system.l2.demand_avg_miss_latency::.cpu.dcache.prefetcher 82561.107972                       # average overall miss latency
system.l2.demand_avg_miss_latency::total 81133.989458                       # average overall miss latency
system.l2.overall_avg_miss_latency::.cpu.inst 75705.882353                       # average overall miss latency
system.l2.overall_avg_miss_latency::.cpu.data 80154.622527                       # average overall miss latency
system.l2.overall_avg_miss_latency::.cpu.dcache.prefetcher 82561.107972                       # average overall miss latency
system.l2.overall_avg_miss_latency::total 81133.989458                       # average overall miss latency
system.l2.blocked_cycles::no_mshrs                  0                       # number of cycles access was blocked
system.l2.blocked_cycles::no_targets                0                       # number of cycles access was blocked
system.l2.blocked::no_mshrs                         0                       # number of cycles access was blocked
system.l2.blocked::no_targets                       0                       # number of cycles access was blocked
system.l2.avg_blocked_cycles::no_mshrs            nan                       # average number of cycles each access was blocked
system.l2.avg_blocked_cycles::no_targets          nan                       # average number of cycles each access was blocked
system.l2.demand_mshr_hits::.cpu.dcache.prefetcher           71                       # number of demand (read+write) MSHR hits
system.l2.demand_mshr_hits::total                  71                       # number of demand (read+write) MSHR hits
system.l2.overall_mshr_hits::.cpu.dcache.prefetcher           71                       # number of overall MSHR hits
system.l2.overall_mshr_hits::total                 71                       # number of overall MSHR hits
system.l2.demand_mshr_misses::.cpu.inst           493                       # number of demand (read+write) MSHR misses
system.l2.demand_mshr_misses::.cpu.data          2477                       # number of demand (read+write) MSHR misses
system.l2.demand_mshr_misses::.cpu.dcache.prefetcher         3504                       # number of demand (read+write) MSHR misses
system.l2.demand_mshr_misses::total              6474                       # number of demand (read+write) MSHR misses
system.l2.overall_mshr_misses::.cpu.inst          493                       # number of overall MSHR misses
system.l2.overall_mshr_misses::.cpu.data         2477                       # number of overall MSHR misses
system.l2.overall_mshr_misses::.cpu.dcache.prefetcher         3504                       # number of overall MSHR misses
system.l2.overall_mshr_misses::.l2.prefetcher         6614                       # number of overall MSHR misses
system.l2.overall_mshr_misses::total            13088                       # number of overall MSHR misses
system.l2.demand_mshr_miss_latency::.cpu.inst     32393000                       # number of demand (read+write) MSHR miss cycles
system.l2.demand_mshr_miss_latency::.cpu.data    173773000                       # number of demand (read+write) MSHR miss cycles
system.l2.demand_mshr_miss_latency::.cpu.dcache.prefetcher    257585532                       # number of demand (read+write) MSHR miss cycles
system.l2.demand_mshr_miss_latency::total    463751532                       # number of demand (read+write) MSHR miss cycles
system.l2.overall_mshr_miss_latency::.cpu.inst     32393000                       # number of overall MSHR miss cycles
system.l2.overall_mshr_miss_latency::.cpu.data    173773000                       # number of overall MSHR miss cycles
system.l2.overall_mshr_miss_latency::.cpu.dcache.prefetcher    257585532                       # number of overall MSHR miss cycles
system.l2.overall_mshr_miss_latency::.l2.prefetcher    443811794                       # number of overall MSHR miss cycles
system.l2.overall_mshr_miss_latency::total    907563326                       # number of overall MSHR miss cycles
system.l2.demand_mshr_miss_rate::.cpu.inst     0.918063                       # mshr miss rate for demand accesses
system.l2.demand_mshr_miss_rate::.cpu.data     0.000238                       # mshr miss rate for demand accesses
system.l2.demand_mshr_miss_rate::.cpu.dcache.prefetcher     0.000562                       # mshr miss rate for demand accesses
system.l2.demand_mshr_miss_rate::total       0.000389                       # mshr miss rate for demand accesses
system.l2.overall_mshr_miss_rate::.cpu.inst     0.918063                       # mshr miss rate for overall accesses
system.l2.overall_mshr_miss_rate::.cpu.data     0.000238                       # mshr miss rate for overall accesses
system.l2.overall_mshr_miss_rate::.cpu.dcache.prefetcher     0.000562                       # mshr miss rate for overall accesses
system.l2.overall_mshr_miss_rate::.l2.prefetcher          inf                       # mshr miss rate for overall accesses
system.l2.overall_mshr_miss_rate::total      0.000786                       # mshr miss rate for overall accesses
system.l2.demand_avg_mshr_miss_latency::.cpu.inst 65705.882353                       # average overall mshr miss latency
system.l2.demand_avg_mshr_miss_latency::.cpu.data 70154.622527                       # average overall mshr miss latency
system.l2.demand_avg_mshr_miss_latency::.cpu.dcache.prefetcher 73511.852740                       # average overall mshr miss latency
system.l2.demand_avg_mshr_miss_latency::total 71632.921223                       # average overall mshr miss latency
system.l2.overall_avg_mshr_miss_latency::.cpu.inst 65705.882353                       # average overall mshr miss latency
system.l2.overall_avg_mshr_miss_latency::.cpu.data 70154.622527                       # average overall mshr miss latency
system.l2.overall_avg_mshr_miss_latency::.cpu.dcache.prefetcher 73511.852740                       # average overall mshr miss latency
system.l2.overall_avg_mshr_miss_latency::.l2.prefetcher 67101.873904                       # average overall mshr miss latency
system.l2.overall_avg_mshr_miss_latency::total 69343.163661                       # average overall mshr miss latency
system.l2.replacements                              5                       # number of replacements
system.l2.WritebackDirty_hits::.writebacks        68437                       # number of WritebackDirty hits
system.l2.WritebackDirty_hits::total            68437                       # number of WritebackDirty hits
system.l2.WritebackDirty_accesses::.writebacks        68437                       # number of WritebackDirty accesses(hits+misses)
system.l2.WritebackDirty_accesses::total        68437                       # number of WritebackDirty accesses(hits+misses)
system.l2.WritebackClean_hits::.writebacks          166                       # number of WritebackClean hits
system.l2.WritebackClean_hits::total              166                       # number of WritebackClean hits
system.l2.WritebackClean_accesses::.writebacks          166                       # number of WritebackClean accesses(hits+misses)
system.l2.WritebackClean_accesses::total          166                       # number of WritebackClean accesses(hits+misses)
system.l2.HardPFReq_mshr_misses::.l2.prefetcher         6614                       # number of HardPFReq MSHR misses
system.l2.HardPFReq_mshr_misses::total           6614                       # number of HardPFReq MSHR misses
system.l2.HardPFReq_mshr_miss_latency::.l2.prefetcher    443811794                       # number of HardPFReq MSHR miss cycles
system.l2.HardPFReq_mshr_miss_latency::total    443811794                       # number of HardPFReq MSHR miss cycles
system.l2.HardPFReq_mshr_miss_rate::.l2.prefetcher          inf                       # mshr miss rate for HardPFReq accesses
system.l2.HardPFReq_mshr_miss_rate::total          inf                       # mshr miss rate for HardPFReq accesses
system.l2.HardPFReq_avg_mshr_miss_latency::.l2.prefetcher 67101.873904                       # average HardPFReq mshr miss latency
system.l2.HardPFReq_avg_mshr_miss_latency::total 67101.873904                       # average HardPFReq mshr miss latency
system.l2.ReadExReq_hits::.cpu.data             65333                       # number of ReadExReq hits
system.l2.ReadExReq_hits::total                 65333                       # number of ReadExReq hits
system.l2.ReadExReq_misses::.cpu.data              82                       # number of ReadExReq misses
system.l2.ReadExReq_misses::total                  82                       # number of ReadExReq misses
system.l2.ReadExReq_miss_latency::.cpu.data      6730000                       # number of ReadExReq miss cycles
system.l2.ReadExReq_miss_latency::total       6730000                       # number of ReadExReq miss cycles
system.l2.ReadExReq_accesses::.cpu.data         65415                       # number of ReadExReq accesses(hits+misses)
system.l2.ReadExReq_accesses::total             65415                       # number of ReadExReq accesses(hits+misses)
system.l2.ReadExReq_miss_rate::.cpu.data     0.001254                       # miss rate for ReadExReq accesses
system.l2.ReadExReq_miss_rate::total         0.001254                       # miss rate for ReadExReq accesses
system.l2.ReadExReq_avg_miss_latency::.cpu.data 82073.170732                       # average ReadExReq miss latency
system.l2.ReadExReq_avg_miss_latency::total 82073.170732                       # average ReadExReq miss latency
system.l2.ReadExReq_mshr_misses::.cpu.data           82                       # number of ReadExReq MSHR misses
system.l2.ReadExReq_mshr_misses::total             82                       # number of ReadExReq MSHR misses
system.l2.ReadExReq_mshr_miss_latency::.cpu.data      5910000                       # number of ReadExReq MSHR miss cycles
system.l2.ReadExReq_mshr_miss_latency::total      5910000                       # number of ReadExReq MSHR miss cycles
system.l2.ReadExReq_mshr_miss_rate::.cpu.data     0.001254                       # mshr miss rate for ReadExReq accesses
system.l2.ReadExReq_mshr_miss_rate::total     0.001254                       # mshr miss rate for ReadExReq accesses
system.l2.ReadExReq_avg_mshr_miss_latency::.cpu.data 72073.170732                       # average ReadExReq mshr miss latency
system.l2.ReadExReq_avg_mshr_miss_latency::total 72073.170732                       # average ReadExReq mshr miss latency
system.l2.ReadCleanReq_hits::.cpu.inst             44                       # number of ReadCleanReq hits
system.l2.ReadCleanReq_hits::total                 44                       # number of ReadCleanReq hits
system.l2.ReadCleanReq_misses::.cpu.inst          493                       # number of ReadCleanReq misses
system.l2.ReadCleanReq_misses::total              493                       # number of ReadCleanReq misses
system.l2.ReadCleanReq_miss_latency::.cpu.inst     37323000                       # number of ReadCleanReq miss cycles
system.l2.ReadCleanReq_miss_latency::total     37323000                       # number of ReadCleanReq miss cycles
system.l2.ReadCleanReq_accesses::.cpu.inst          537                       # number of ReadCleanReq accesses(hits+misses)
system.l2.ReadCleanReq_accesses::total            537                       # number of ReadCleanReq accesses(hits+misses)
system.l2.ReadCleanReq_miss_rate::.cpu.inst     0.918063                       # miss rate for ReadCleanReq accesses
system.l2.ReadCleanReq_miss_rate::total      0.918063                       # miss rate for ReadCleanReq accesses
system.l2.ReadCleanReq_avg_miss_latency::.cpu.inst 75705.882353                       # average ReadCleanReq miss latency
system.l2.ReadCleanReq_avg_miss_latency::total 75705.882353                       # average ReadCleanReq miss latency
system.l2.ReadCleanReq_mshr_misses::.cpu.inst          493                       # number of ReadCleanReq MSHR misses
system.l2.ReadCleanReq_mshr_misses::total          493                       # number of ReadCleanReq MSHR misses
system.l2.ReadCleanReq_mshr_miss_latency::.cpu.inst     32393000                       # number of ReadCleanReq MSHR miss cycles
system.l2.ReadCleanReq_mshr_miss_latency::total     32393000                       # number of ReadCleanReq MSHR miss cycles
system.l2.ReadCleanReq_mshr_miss_rate::.cpu.inst     0.918063                       # mshr miss rate for ReadCleanReq accesses
system.l2.ReadCleanReq_mshr_miss_rate::total     0.918063                       # mshr miss rate for ReadCleanReq accesses
system.l2.ReadCleanReq_avg_mshr_miss_latency::.cpu.inst 65705.882353                       # average ReadCleanReq mshr miss latency
system.l2.ReadCleanReq_avg_mshr_miss_latency::total 65705.882353                       # average ReadCleanReq mshr miss latency
system.l2.ReadSharedReq_hits::.cpu.data      10346828                       # number of ReadSharedReq hits
system.l2.ReadSharedReq_hits::.cpu.dcache.prefetcher      6231351                       # number of ReadSharedReq hits
system.l2.ReadSharedReq_hits::total          16578179                       # number of ReadSharedReq hits
system.l2.ReadSharedReq_misses::.cpu.data         2395                       # number of ReadSharedReq misses
system.l2.ReadSharedReq_misses::.cpu.dcache.prefetcher         3575                       # number of ReadSharedReq misses
system.l2.ReadSharedReq_misses::total            5970                       # number of ReadSharedReq misses
system.l2.ReadSharedReq_miss_latency::.cpu.data    191813000                       # number of ReadSharedReq miss cycles
system.l2.ReadSharedReq_miss_latency::.cpu.dcache.prefetcher    295155961                       # number of ReadSharedReq miss cycles
system.l2.ReadSharedReq_miss_latency::total    486968961                       # number of ReadSharedReq miss cycles
system.l2.ReadSharedReq_accesses::.cpu.data     10349223                       # number of ReadSharedReq accesses(hits+misses)
system.l2.ReadSharedReq_accesses::.cpu.dcache.prefetcher      6234926                       # number of ReadSharedReq accesses(hits+misses)
system.l2.ReadSharedReq_accesses::total      16584149                       # number of ReadSharedReq accesses(hits+misses)
system.l2.ReadSharedReq_miss_rate::.cpu.data     0.000231                       # miss rate for ReadSharedReq accesses
system.l2.ReadSharedReq_miss_rate::.cpu.dcache.prefetcher     0.000573                       # miss rate for ReadSharedReq accesses
system.l2.ReadSharedReq_miss_rate::total     0.000360                       # miss rate for ReadSharedReq accesses
system.l2.ReadSharedReq_avg_miss_latency::.cpu.data 80088.935282                       # average ReadSharedReq miss latency
system.l2.ReadSharedReq_avg_miss_latency::.cpu.dcache.prefetcher 82561.107972                       # average ReadSharedReq miss latency
system.l2.ReadSharedReq_avg_miss_latency::total 81569.340201                       # average ReadSharedReq miss latency
system.l2.ReadSharedReq_mshr_hits::.cpu.dcache.prefetcher           71                       # number of ReadSharedReq MSHR hits
system.l2.ReadSharedReq_mshr_hits::total           71                       # number of ReadSharedReq MSHR hits
system.l2.ReadSharedReq_mshr_misses::.cpu.data         2395                       # number of ReadSharedReq MSHR misses
system.l2.ReadSharedReq_mshr_misses::.cpu.dcache.prefetcher         3504                       # number of ReadSharedReq MSHR misses
system.l2.ReadSharedReq_mshr_misses::total         5899                       # number of ReadSharedReq MSHR misses
system.l2.ReadSharedReq_mshr_miss_latency::.cpu.data    167863000                       # number of ReadSharedReq MSHR miss cycles
system.l2.ReadSharedReq_mshr_miss_latency::.cpu.dcache.prefetcher    257585532                       # number of ReadSharedReq MSHR miss cycles
system.l2.ReadSharedReq_mshr_miss_latency::total    425448532                       # number of ReadSharedReq MSHR miss cycles
system.l2.ReadSharedReq_mshr_miss_rate::.cpu.data     0.000231                       # mshr miss rate for ReadSharedReq accesses
system.l2.ReadSharedReq_mshr_miss_rate::.cpu.dcache.prefetcher     0.000562                       # mshr miss rate for ReadSharedReq accesses
system.l2.ReadSharedReq_mshr_miss_rate::total     0.000356                       # mshr miss rate for ReadSharedReq accesses
system.l2.ReadSharedReq_avg_mshr_miss_latency::.cpu.data 70088.935282                       # average ReadSharedReq mshr miss latency
system.l2.ReadSharedReq_avg_mshr_miss_latency::.cpu.dcache.prefetcher 73511.852740                       # average ReadSharedReq mshr miss latency
system.l2.ReadSharedReq_avg_mshr_miss_latency::total 72122.144770                       # average ReadSharedReq mshr miss latency
system.l2.InvalidateReq_misses::.cpu.data            4                       # number of InvalidateReq misses
system.l2.InvalidateReq_misses::total               4                       # number of InvalidateReq misses
system.l2.InvalidateReq_accesses::.cpu.data            4                       # number of InvalidateReq accesses(hits+misses)
system.l2.InvalidateReq_accesses::total             4                       # number of InvalidateReq accesses(hits+misses)
system.l2.InvalidateReq_miss_rate::.cpu.data            1                       # miss rate for InvalidateReq accesses
system.l2.InvalidateReq_miss_rate::total            1                       # miss rate for InvalidateReq accesses
system.l2.InvalidateReq_mshr_misses::.cpu.data            4                       # number of InvalidateReq MSHR misses
system.l2.InvalidateReq_mshr_misses::total            4                       # number of InvalidateReq MSHR misses
system.l2.InvalidateReq_mshr_miss_latency::.cpu.data        74000                       # number of InvalidateReq MSHR miss cycles
system.l2.InvalidateReq_mshr_miss_latency::total        74000                       # number of InvalidateReq MSHR miss cycles
system.l2.InvalidateReq_mshr_miss_rate::.cpu.data            1                       # mshr miss rate for InvalidateReq accesses
system.l2.InvalidateReq_mshr_miss_rate::total            1                       # mshr miss rate for InvalidateReq accesses
system.l2.InvalidateReq_avg_mshr_miss_latency::.cpu.data        18500                       # average InvalidateReq mshr miss latency
system.l2.InvalidateReq_avg_mshr_miss_latency::total        18500                       # average InvalidateReq mshr miss latency
system.l2.prefetcher.pwrStateResidencyTicks::UNDEFINED 178273675500                       # Cumulative time (in ticks) in various power states
system.l2.tags.pwrStateResidencyTicks::UNDEFINED 178273675500                       # Cumulative time (in ticks) in various power states
system.l2.tags.tagsinuse                  8870.044532                       # Cycle average of tags in use
system.l2.tags.total_refs                    33304328                       # Total number of references to valid blocks.
system.l2.tags.sampled_refs                     13092                       # Sample count of references to valid blocks.
system.l2.tags.avg_refs                   2543.868622                       # Average number of references to valid blocks.
system.l2.tags.warmup_cycle                     77000                       # Cycle when the warmup percentage was hit.
system.l2.tags.occ_blocks::.writebacks       3.987032                       # Average occupied blocks per requestor
system.l2.tags.occ_blocks::.cpu.inst       351.804847                       # Average occupied blocks per requestor
system.l2.tags.occ_blocks::.cpu.data      2091.914004                       # Average occupied blocks per requestor
system.l2.tags.occ_blocks::.cpu.dcache.prefetcher  2569.011112                       # Average occupied blocks per requestor
system.l2.tags.occ_blocks::.l2.prefetcher  3853.327538                       # Average occupied blocks per requestor
system.l2.tags.occ_percent::.writebacks      0.000243                       # Average percentage of cache occupancy
system.l2.tags.occ_percent::.cpu.inst        0.021472                       # Average percentage of cache occupancy
system.l2.tags.occ_percent::.cpu.data        0.127680                       # Average percentage of cache occupancy
system.l2.tags.occ_percent::.cpu.dcache.prefetcher     0.156800                       # Average percentage of cache occupancy
system.l2.tags.occ_percent::.l2.prefetcher     0.235188                       # Average percentage of cache occupancy
system.l2.tags.occ_percent::total            0.541385                       # Average percentage of cache occupancy
system.l2.tags.occ_task_id_blocks::1022         10118                       # Occupied blocks per task id
system.l2.tags.occ_task_id_blocks::1024          2969                       # Occupied blocks per task id
system.l2.tags.age_task_id_blocks_1022::1            6                       # Occupied blocks per task id
system.l2.tags.age_task_id_blocks_1022::2           21                       # Occupied blocks per task id
system.l2.tags.age_task_id_blocks_1022::3          373                       # Occupied blocks per task id
system.l2.tags.age_task_id_blocks_1022::4         9718                       # Occupied blocks per task id
system.l2.tags.age_task_id_blocks_1024::0          124                       # Occupied blocks per task id
system.l2.tags.age_task_id_blocks_1024::1           57                       # Occupied blocks per task id
system.l2.tags.age_task_id_blocks_1024::2            2                       # Occupied blocks per task id
system.l2.tags.age_task_id_blocks_1024::3           37                       # Occupied blocks per task id
system.l2.tags.age_task_id_blocks_1024::4         2749                       # Occupied blocks per task id
system.l2.tags.occ_task_id_percent::1022     0.617554                       # Percentage of cache occupancy per task id
system.l2.tags.occ_task_id_percent::1024     0.181213                       # Percentage of cache occupancy per task id
system.l2.tags.tag_accesses                 266395404                       # Number of tag accesses
system.l2.tags.data_accesses                266395404                       # Number of data accesses
system.cpu_voltage_domain.voltage                   1                       # Voltage in Volts
system.mem_ctrls.pwrStateResidencyTicks::UNDEFINED 178273675500                       # Cumulative time (in ticks) in various power states
system.mem_ctrls.bytes_read::.cpu.inst          31552                       # Number of bytes read from this memory
system.mem_ctrls.bytes_read::.cpu.data         158528                       # Number of bytes read from this memory
system.mem_ctrls.bytes_read::.cpu.dcache.prefetcher       224256                       # Number of bytes read from this memory
system.mem_ctrls.bytes_read::.l2.prefetcher       423296                       # Number of bytes read from this memory
system.mem_ctrls.bytes_read::total             837632                       # Number of bytes read from this memory
system.mem_ctrls.bytes_inst_read::.cpu.inst        31552                       # Number of instructions bytes read from this memory
system.mem_ctrls.bytes_inst_read::total         31552                       # Number of instructions bytes read from this memory
system.mem_ctrls.num_reads::.cpu.inst             493                       # Number of read requests responded to by this memory
system.mem_ctrls.num_reads::.cpu.data            2477                       # Number of read requests responded to by this memory
system.mem_ctrls.num_reads::.cpu.dcache.prefetcher         3504                       # Number of read requests responded to by this memory
system.mem_ctrls.num_reads::.l2.prefetcher         6614                       # Number of read requests responded to by this memory
system.mem_ctrls.num_reads::total               13088                       # Number of read requests responded to by this memory
system.mem_ctrls.bw_read::.cpu.inst            176986                       # Total read bandwidth from this memory (bytes/s)
system.mem_ctrls.bw_read::.cpu.data            889240                       # Total read bandwidth from this memory (bytes/s)
system.mem_ctrls.bw_read::.cpu.dcache.prefetcher      1257931                       # Total read bandwidth from this memory (bytes/s)
system.mem_ctrls.bw_read::.l2.prefetcher      2374417                       # Total read bandwidth from this memory (bytes/s)
system.mem_ctrls.bw_read::total               4698574                       # Total read bandwidth from this memory (bytes/s)
system.mem_ctrls.bw_inst_read::.cpu.inst       176986                       # Instruction read bandwidth from this memory (bytes/s)
system.mem_ctrls.bw_inst_read::total           176986                       # Instruction read bandwidth from this memory (bytes/s)
system.mem_ctrls.bw_total::.cpu.inst           176986                       # Total bandwidth to/from this memory (bytes/s)
system.mem_ctrls.bw_total::.cpu.data           889240                       # Total bandwidth to/from this memory (bytes/s)
system.mem_ctrls.bw_total::.cpu.dcache.prefetcher      1257931                       # Total bandwidth to/from this memory (bytes/s)
system.mem_ctrls.bw_total::.l2.prefetcher      2374417                       # Total bandwidth to/from this memory (bytes/s)
system.mem_ctrls.bw_total::total              4698574                       # Total bandwidth to/from this memory (bytes/s)
system.mem_ctrls.avgPriority_.cpu.inst::samples       493.00                       # Average QoS priority value for accepted requests
system.mem_ctrls.avgPriority_.cpu.data::samples      2477.00                       # Average QoS priority value for accepted requests
system.mem_ctrls.avgPriority_.cpu.dcache.prefetcher::samples      3504.00                       # Average QoS priority value for accepted requests
system.mem_ctrls.avgPriority_.l2.prefetcher::samples      6614.00                       # Average QoS priority value for accepted requests
system.mem_ctrls.priorityMinLatency      0.000000018750                       # per QoS priority minimum request to response latency (s)
system.mem_ctrls.priorityMaxLatency      0.000000683502                       # per QoS priority maximum request to response latency (s)
system.mem_ctrls.numReadWriteTurnArounds            0                       # Number of turnarounds from READ to WRITE
system.mem_ctrls.numWriteReadTurnArounds            0                       # Number of turnarounds from WRITE to READ
system.mem_ctrls.numStayReadState               71749                       # Number of times bus staying in READ state
system.mem_ctrls.numStayWriteState                  0                       # Number of times bus staying in WRITE state
system.mem_ctrls.readReqs                       13088                       # Number of read requests accepted
system.mem_ctrls.writeReqs                          0                       # Number of write requests accepted
system.mem_ctrls.readBursts                     13088                       # Number of DRAM read bursts, including those serviced by the write queue
system.mem_ctrls.writeBursts                        0                       # Number of DRAM write bursts, including those merged in the write queue
system.mem_ctrls.servicedByWrQ                      0                       # Number of DRAM read bursts serviced by the write queue
system.mem_ctrls.mergedWrBursts                     0                       # Number of DRAM write bursts merged with an existing one
system.mem_ctrls.neitherReadNorWriteReqs            0                       # Number of requests that are neither read nor write
system.mem_ctrls.perBankRdBursts::0               872                       # Per bank write bursts
system.mem_ctrls.perBankRdBursts::1               847                       # Per bank write bursts
system.mem_ctrls.perBankRdBursts::2               862                       # Per bank write bursts
system.mem_ctrls.perBankRdBursts::3               790                       # Per bank write bursts
system.mem_ctrls.perBankRdBursts::4               784                       # Per bank write bursts
system.mem_ctrls.perBankRdBursts::5               768                       # Per bank write bursts
system.mem_ctrls.perBankRdBursts::6               777                       # Per bank write bursts
system.mem_ctrls.perBankRdBursts::7               780                       # Per bank write bursts
system.mem_ctrls.perBankRdBursts::8               808                       # Per bank write bursts
system.mem_ctrls.perBankRdBursts::9               815                       # Per bank write bursts
system.mem_ctrls.perBankRdBursts::10              790                       # Per bank write bursts
system.mem_ctrls.perBankRdBursts::11              826                       # Per bank write bursts
system.mem_ctrls.perBankRdBursts::12              795                       # Per bank write bursts
system.mem_ctrls.perBankRdBursts::13              909                       # Per bank write bursts
system.mem_ctrls.perBankRdBursts::14              816                       # Per bank write bursts
system.mem_ctrls.perBankRdBursts::15              849                       # Per bank write bursts
system.mem_ctrls.perBankWrBursts::0                 0                       # Per bank write bursts
system.mem_ctrls.perBankWrBursts::1                 0                       # Per bank write bursts
system.mem_ctrls.perBankWrBursts::2                 0                       # Per bank write bursts
system.mem_ctrls.perBankWrBursts::3                 0                       # Per bank write bursts
system.mem_ctrls.perBankWrBursts::4                 0                       # Per bank write bursts
system.mem_ctrls.perBankWrBursts::5                 0                       # Per bank write bursts
system.mem_ctrls.perBankWrBursts::6                 0                       # Per bank write bursts
system.mem_ctrls.perBankWrBursts::7                 0                       # Per bank write bursts
system.mem_ctrls.perBankWrBursts::8                 0                       # Per bank write bursts
system.mem_ctrls.perBankWrBursts::9                 0                       # Per bank write bursts
system.mem_ctrls.perBankWrBursts::10                0                       # Per bank write bursts
system.mem_ctrls.perBankWrBursts::11                0                       # Per bank write bursts
system.mem_ctrls.perBankWrBursts::12                0                       # Per bank write bursts
system.mem_ctrls.perBankWrBursts::13                0                       # Per bank write bursts
system.mem_ctrls.perBankWrBursts::14                0                       # Per bank write bursts
system.mem_ctrls.perBankWrBursts::15                0                       # Per bank write bursts
system.mem_ctrls.avgRdQLen                       2.70                       # Average read queue length when enqueuing
system.mem_ctrls.avgWrQLen                       0.00                       # Average write queue length when enqueuing
system.mem_ctrls.totQLat                    182276166                       # Total ticks spent queuing
system.mem_ctrls.totBusLat                   65440000                       # Total ticks spent in databus transfers
system.mem_ctrls.totMemAccLat               427676166                       # Total ticks spent from burst creation until serviced by the DRAM
system.mem_ctrls.avgQLat                     13926.97                       # Average queueing delay per DRAM burst
system.mem_ctrls.avgBusLat                    5000.00                       # Average bus latency per DRAM burst
system.mem_ctrls.avgMemAccLat                32676.97                       # Average memory access latency per DRAM burst
system.mem_ctrls.numRdRetry                         0                       # Number of times read queue was full causing retry
system.mem_ctrls.numWrRetry                         0                       # Number of times write queue was full causing retry
system.mem_ctrls.readRowHits                    10715                       # Number of row buffer hits during reads
system.mem_ctrls.writeRowHits                       0                       # Number of row buffer hits during writes
system.mem_ctrls.readRowHitRate                 81.87                       # Row buffer hit rate for reads
system.mem_ctrls.writeRowHitRate                  nan                       # Row buffer hit rate for writes
system.mem_ctrls.readPktSize::0                     0                       # Read request sizes (log2)
system.mem_ctrls.readPktSize::1                     0                       # Read request sizes (log2)
system.mem_ctrls.readPktSize::2                     0                       # Read request sizes (log2)
system.mem_ctrls.readPktSize::3                     0                       # Read request sizes (log2)
system.mem_ctrls.readPktSize::4                     0                       # Read request sizes (log2)
system.mem_ctrls.readPktSize::5                     0                       # Read request sizes (log2)
system.mem_ctrls.readPktSize::6                 13088                       # Read request sizes (log2)
system.mem_ctrls.writePktSize::0                    0                       # Write request sizes (log2)
system.mem_ctrls.writePktSize::1                    0                       # Write request sizes (log2)
system.mem_ctrls.writePktSize::2                    0                       # Write request sizes (log2)
system.mem_ctrls.writePktSize::3                    0                       # Write request sizes (log2)
system.mem_ctrls.writePktSize::4                    0                       # Write request sizes (log2)
system.mem_ctrls.writePktSize::5                    0                       # Write request sizes (log2)
system.mem_ctrls.writePktSize::6                    0                       # Write request sizes (log2)
system.mem_ctrls.rdQLenPdf::0                    4984                       # What read queue length does an incoming req see
system.mem_ctrls.rdQLenPdf::1                    4100                       # What read queue length does an incoming req see
system.mem_ctrls.rdQLenPdf::2                    1655                       # What read queue length does an incoming req see
system.mem_ctrls.rdQLenPdf::3                    1194                       # What read queue length does an incoming req see
system.mem_ctrls.rdQLenPdf::4                     705                       # What read queue length does an incoming req see
system.mem_ctrls.rdQLenPdf::5                     212                       # What read queue length does an incoming req see
system.mem_ctrls.rdQLenPdf::6                     177                       # What read queue length does an incoming req see
system.mem_ctrls.rdQLenPdf::7                      50                       # What read queue length does an incoming req see
system.mem_ctrls.rdQLenPdf::8                      11                       # What read queue length does an incoming req see
system.mem_ctrls.rdQLenPdf::9                       0                       # What read queue length does an incoming req see
system.mem_ctrls.rdQLenPdf::10                      0                       # What read queue length does an incoming req see
system.mem_ctrls.rdQLenPdf::11                      0                       # What read queue length does an incoming req see
system.mem_ctrls.rdQLenPdf::12                      0                       # What read queue length does an incoming req see
system.mem_ctrls.rdQLenPdf::13                      0                       # What read queue length does an incoming req see
system.mem_ctrls.rdQLenPdf::14                      0                       # What read queue length does an incoming req see
system.mem_ctrls.rdQLenPdf::15                      0                       # What read queue length does an incoming req see
system.mem_ctrls.rdQLenPdf::16                      0                       # What read queue length does an incoming req see
system.mem_ctrls.rdQLenPdf::17                      0                       # What read queue length does an incoming req see
system.mem_ctrls.rdQLenPdf::18                      0                       # What read queue length does an incoming req see
system.mem_ctrls.rdQLenPdf::19                      0                       # What read queue length does an incoming req see
system.mem_ctrls.rdQLenPdf::20                      0                       # What read queue length does an incoming req see
system.mem_ctrls.rdQLenPdf::21                      0                       # What read queue length does an incoming req see
system.mem_ctrls.rdQLenPdf::22                      0                       # What read queue length does an incoming req see
system.mem_ctrls.rdQLenPdf::23                      0                       # What read queue length does an incoming req see
system.mem_ctrls.rdQLenPdf::24                      0                       # What read queue length does an incoming req see
system.mem_ctrls.rdQLenPdf::25                      0                       # What read queue length does an incoming req see
system.mem_ctrls.rdQLenPdf::26                      0                       # What read queue length does an incoming req see
system.mem_ctrls.rdQLenPdf::27                      0                       # What read queue length does an incoming req see
system.mem_ctrls.rdQLenPdf::28                      0                       # What read queue length does an incoming req see
system.mem_ctrls.rdQLenPdf::29                      0                       # What read queue length does an incoming req see
system.mem_ctrls.rdQLenPdf::30                      0                       # What read queue length does an incoming req see
system.mem_ctrls.rdQLenPdf::31                      0                       # What read queue length does an incoming req see
system.mem_ctrls.wrQLenPdf::0                       0                       # What write queue length does an incoming req see
system.mem_ctrls.wrQLenPdf::1                       0                       # What write queue length does an incoming req see
system.mem_ctrls.wrQLenPdf::2                       0                       # What write queue length does an incoming req see
system.mem_ctrls.wrQLenPdf::3                       0                       # What write queue length does an incoming req see
system.mem_ctrls.wrQLenPdf::4                       0                       # What write queue length does an incoming req see
system.mem_ctrls.wrQLenPdf::5                       0                       # What write queue length does an incoming req see
system.mem_ctrls.wrQLenPdf::6                       0                       # What write queue length does an incoming req see
system.mem_ctrls.wrQLenPdf::7                       0                       # What write queue length does an incoming req see
system.mem_ctrls.wrQLenPdf::8                       0                       # What write queue length does an incoming req see
[...]
system.cpu.dcache.demand_mshr_misses::total     10414639                       # number of demand (read+write) MSHR misses
system.cpu.dcache.overall_mshr_misses::.cpu.data     10414639                       # number of overall MSHR misses
system.cpu.dcache.overall_mshr_misses::.cpu.dcache.prefetcher      6234926                       # number of overall MSHR misses
system.cpu.dcache.overall_mshr_misses::total     16649565                       # number of overall MSHR misses
system.cpu.dcache.demand_mshr_miss_latency::.cpu.data 127626140000                       # number of demand (read+write) MSHR miss cycles
system.cpu.dcache.demand_mshr_miss_latency::total 127626140000                       # number of demand (read+write) MSHR miss cycles
system.cpu.dcache.overall_mshr_miss_latency::.cpu.data 127626140000                       # number of overall MSHR miss cycles
system.cpu.dcache.overall_mshr_miss_latency::.cpu.dcache.prefetcher  72704324951                       # number of overall MSHR miss cycles
system.cpu.dcache.overall_mshr_miss_latency::total 200330464951                       # number of overall MSHR miss cycles
system.cpu.dcache.demand_mshr_miss_rate::.cpu.data     0.307948                       # mshr miss rate for demand accesses
system.cpu.dcache.demand_mshr_miss_rate::total     0.307948                       # mshr miss rate for demand accesses
system.cpu.dcache.overall_mshr_miss_rate::.cpu.data     0.307948                       # mshr miss rate for overall accesses
system.cpu.dcache.overall_mshr_miss_rate::.cpu.dcache.prefetcher          inf                       # mshr miss rate for overall accesses
system.cpu.dcache.overall_mshr_miss_rate::total     0.492307                       # mshr miss rate for overall accesses
system.cpu.dcache.demand_avg_mshr_miss_latency::.cpu.data 12254.494851                       # average overall mshr miss latency
system.cpu.dcache.demand_avg_mshr_miss_latency::total 12254.494851                       # average overall mshr miss latency
system.cpu.dcache.overall_avg_mshr_miss_latency::.cpu.data 12254.494851                       # average overall mshr miss latency
system.cpu.dcache.overall_avg_mshr_miss_latency::.cpu.dcache.prefetcher 11660.816015                       # average overall mshr miss latency
system.cpu.dcache.overall_avg_mshr_miss_latency::total 12032.174111                       # average overall mshr miss latency
system.cpu.dcache.replacements               16647520                       # number of replacements
system.cpu.dcache.ReadReq_hits::.cpu.data     21415894                       # number of ReadReq hits
system.cpu.dcache.ReadReq_hits::total        21415894                       # number of ReadReq hits
system.cpu.dcache.ReadReq_misses::.cpu.data     12336583                       # number of ReadReq misses
system.cpu.dcache.ReadReq_misses::total      12336583                       # number of ReadReq misses
system.cpu.dcache.ReadReq_miss_latency::.cpu.data 156916895500                       # number of ReadReq miss cycles
system.cpu.dcache.ReadReq_miss_latency::total 156916895500                       # number of ReadReq miss cycles
system.cpu.dcache.ReadReq_accesses::.cpu.data     33752477                       # number of ReadReq accesses(hits+misses)
system.cpu.dcache.ReadReq_accesses::total     33752477                       # number of ReadReq accesses(hits+misses)
system.cpu.dcache.ReadReq_miss_rate::.cpu.data     0.365502                       # miss rate for ReadReq accesses
system.cpu.dcache.ReadReq_miss_rate::total     0.365502                       # miss rate for ReadReq accesses
system.cpu.dcache.ReadReq_avg_miss_latency::.cpu.data 12719.640074                       # average ReadReq miss latency
system.cpu.dcache.ReadReq_avg_miss_latency::total 12719.640074                       # average ReadReq miss latency
system.cpu.dcache.ReadReq_mshr_hits::.cpu.data      1987361                       # number of ReadReq MSHR hits
system.cpu.dcache.ReadReq_mshr_hits::total      1987361                       # number of ReadReq MSHR hits
system.cpu.dcache.ReadReq_mshr_misses::.cpu.data     10349222                       # number of ReadReq MSHR misses
system.cpu.dcache.ReadReq_mshr_misses::total     10349222                       # number of ReadReq MSHR misses
system.cpu.dcache.ReadReq_mshr_miss_latency::.cpu.data 126831280500                       # number of ReadReq MSHR miss cycles
system.cpu.dcache.ReadReq_mshr_miss_latency::total 126831280500                       # number of ReadReq MSHR miss cycles
system.cpu.dcache.ReadReq_mshr_miss_rate::.cpu.data     0.306621                       # mshr miss rate for ReadReq accesses
system.cpu.dcache.ReadReq_mshr_miss_rate::total     0.306621                       # mshr miss rate for ReadReq accesses
system.cpu.dcache.ReadReq_avg_mshr_miss_latency::.cpu.data 12255.151208                       # average ReadReq mshr miss latency
system.cpu.dcache.ReadReq_avg_mshr_miss_latency::total 12255.151208                       # average ReadReq mshr miss latency
system.cpu.dcache.WriteReq_hits::.cpu.data         1502                       # number of WriteReq hits
system.cpu.dcache.WriteReq_hits::total           1502                       # number of WriteReq hits
system.cpu.dcache.WriteReq_misses::.cpu.data        65502                       # number of WriteReq misses
system.cpu.dcache.WriteReq_misses::total        65502                       # number of WriteReq misses
system.cpu.dcache.WriteReq_miss_latency::.cpu.data    865085500                       # number of WriteReq miss cycles
system.cpu.dcache.WriteReq_miss_latency::total    865085500                       # number of WriteReq miss cycles
system.cpu.dcache.WriteReq_accesses::.cpu.data        67004                       # number of WriteReq accesses(hits+misses)
system.cpu.dcache.WriteReq_accesses::total        67004                       # number of WriteReq accesses(hits+misses)
system.cpu.dcache.WriteReq_miss_rate::.cpu.data     0.977583                       # miss rate for WriteReq accesses
system.cpu.dcache.WriteReq_miss_rate::total     0.977583                       # miss rate for WriteReq accesses
system.cpu.dcache.WriteReq_avg_miss_latency::.cpu.data 13207.008946                       # average WriteReq miss latency
system.cpu.dcache.WriteReq_avg_miss_latency::total 13207.008946                       # average WriteReq miss latency
system.cpu.dcache.WriteReq_mshr_hits::.cpu.data           89                       # number of WriteReq MSHR hits
system.cpu.dcache.WriteReq_mshr_hits::total           89                       # number of WriteReq MSHR hits
system.cpu.dcache.WriteReq_mshr_misses::.cpu.data        65413                       # number of WriteReq MSHR misses
system.cpu.dcache.WriteReq_mshr_misses::total        65413                       # number of WriteReq MSHR misses
system.cpu.dcache.WriteReq_mshr_miss_latency::.cpu.data    794739500                       # number of WriteReq MSHR miss cycles
system.cpu.dcache.WriteReq_mshr_miss_latency::total    794739500                       # number of WriteReq MSHR miss cycles
system.cpu.dcache.WriteReq_mshr_miss_rate::.cpu.data     0.976255                       # mshr miss rate for WriteReq accesses
system.cpu.dcache.WriteReq_mshr_miss_rate::total     0.976255                       # mshr miss rate for WriteReq accesses
system.cpu.dcache.WriteReq_avg_mshr_miss_latency::.cpu.data 12149.565071                       # average WriteReq mshr miss latency
system.cpu.dcache.WriteReq_avg_mshr_miss_latency::total 12149.565071                       # average WriteReq mshr miss latency
system.cpu.dcache.HardPFReq_mshr_misses::.cpu.dcache.prefetcher      6234926                       # number of HardPFReq MSHR misses
system.cpu.dcache.HardPFReq_mshr_misses::total      6234926                       # number of HardPFReq MSHR misses
system.cpu.dcache.HardPFReq_mshr_miss_latency::.cpu.dcache.prefetcher  72704324951                       # number of HardPFReq MSHR miss cycles
system.cpu.dcache.HardPFReq_mshr_miss_latency::total  72704324951                       # number of HardPFReq MSHR miss cycles
system.cpu.dcache.HardPFReq_mshr_miss_rate::.cpu.dcache.prefetcher          inf                       # mshr miss rate for HardPFReq accesses
system.cpu.dcache.HardPFReq_mshr_miss_rate::total          inf                       # mshr miss rate for HardPFReq accesses
system.cpu.dcache.HardPFReq_avg_mshr_miss_latency::.cpu.dcache.prefetcher 11660.816015                       # average HardPFReq mshr miss latency
system.cpu.dcache.HardPFReq_avg_mshr_miss_latency::total 11660.816015                       # average HardPFReq mshr miss latency
system.cpu.dcache.WriteLineReq_misses::.cpu.data            7                       # number of WriteLineReq misses
system.cpu.dcache.WriteLineReq_misses::total            7                       # number of WriteLineReq misses
system.cpu.dcache.WriteLineReq_miss_latency::.cpu.data       322000                       # number of WriteLineReq miss cycles
system.cpu.dcache.WriteLineReq_miss_latency::total       322000                       # number of WriteLineReq miss cycles
system.cpu.dcache.WriteLineReq_accesses::.cpu.data            7                       # number of WriteLineReq accesses(hits+misses)
system.cpu.dcache.WriteLineReq_accesses::total            7                       # number of WriteLineReq accesses(hits+misses)
system.cpu.dcache.WriteLineReq_miss_rate::.cpu.data            1                       # miss rate for WriteLineReq accesses
system.cpu.dcache.WriteLineReq_miss_rate::total            1                       # miss rate for WriteLineReq accesses
system.cpu.dcache.WriteLineReq_avg_miss_latency::.cpu.data        46000                       # average WriteLineReq miss latency
system.cpu.dcache.WriteLineReq_avg_miss_latency::total        46000                       # average WriteLineReq miss latency
system.cpu.dcache.WriteLineReq_mshr_hits::.cpu.data            3                       # number of WriteLineReq MSHR hits
system.cpu.dcache.WriteLineReq_mshr_hits::total            3                       # number of WriteLineReq MSHR hits
system.cpu.dcache.WriteLineReq_mshr_misses::.cpu.data            4                       # number of WriteLineReq MSHR misses
system.cpu.dcache.WriteLineReq_mshr_misses::total            4                       # number of WriteLineReq MSHR misses
system.cpu.dcache.WriteLineReq_mshr_miss_latency::.cpu.data       120000                       # number of WriteLineReq MSHR miss cycles
system.cpu.dcache.WriteLineReq_mshr_miss_latency::total       120000                       # number of WriteLineReq MSHR miss cycles
system.cpu.dcache.WriteLineReq_mshr_miss_rate::.cpu.data     0.571429                       # mshr miss rate for WriteLineReq accesses
system.cpu.dcache.WriteLineReq_mshr_miss_rate::total     0.571429                       # mshr miss rate for WriteLineReq accesses
system.cpu.dcache.WriteLineReq_avg_mshr_miss_latency::.cpu.data        30000                       # average WriteLineReq mshr miss latency
system.cpu.dcache.WriteLineReq_avg_mshr_miss_latency::total        30000                       # average WriteLineReq mshr miss latency
system.cpu.dcache.LoadLockedReq_hits::.cpu.data            3                       # number of LoadLockedReq hits
system.cpu.dcache.LoadLockedReq_hits::total            3                       # number of LoadLockedReq hits
system.cpu.dcache.LoadLockedReq_misses::.cpu.data            1                       # number of LoadLockedReq misses
system.cpu.dcache.LoadLockedReq_misses::total            1                       # number of LoadLockedReq misses
system.cpu.dcache.LoadLockedReq_miss_latency::.cpu.data        72000                       # number of LoadLockedReq miss cycles
system.cpu.dcache.LoadLockedReq_miss_latency::total        72000                       # number of LoadLockedReq miss cycles
system.cpu.dcache.LoadLockedReq_accesses::.cpu.data            4                       # number of LoadLockedReq accesses(hits+misses)
system.cpu.dcache.LoadLockedReq_accesses::total            4                       # number of LoadLockedReq accesses(hits+misses)
system.cpu.dcache.LoadLockedReq_miss_rate::.cpu.data     0.250000                       # miss rate for LoadLockedReq accesses
system.cpu.dcache.LoadLockedReq_miss_rate::total     0.250000                       # miss rate for LoadLockedReq accesses
system.cpu.dcache.LoadLockedReq_avg_miss_latency::.cpu.data        72000                       # average LoadLockedReq miss latency
system.cpu.dcache.LoadLockedReq_avg_miss_latency::total        72000                       # average LoadLockedReq miss latency
system.cpu.dcache.LoadLockedReq_mshr_misses::.cpu.data            1                       # number of LoadLockedReq MSHR misses
system.cpu.dcache.LoadLockedReq_mshr_misses::total            1                       # number of LoadLockedReq MSHR misses
system.cpu.dcache.LoadLockedReq_mshr_miss_latency::.cpu.data        71000                       # number of LoadLockedReq MSHR miss cycles
system.cpu.dcache.LoadLockedReq_mshr_miss_latency::total        71000                       # number of LoadLockedReq MSHR miss cycles
system.cpu.dcache.LoadLockedReq_mshr_miss_rate::.cpu.data     0.250000                       # mshr miss rate for LoadLockedReq accesses
system.cpu.dcache.LoadLockedReq_mshr_miss_rate::total     0.250000                       # mshr miss rate for LoadLockedReq accesses
system.cpu.dcache.LoadLockedReq_avg_mshr_miss_latency::.cpu.data        71000                       # average LoadLockedReq mshr miss latency
system.cpu.dcache.LoadLockedReq_avg_mshr_miss_latency::total        71000                       # average LoadLockedReq mshr miss latency
system.cpu.dcache.StoreCondReq_hits::.cpu.data            4                       # number of StoreCondReq hits
system.cpu.dcache.StoreCondReq_hits::total            4                       # number of StoreCondReq hits
system.cpu.dcache.StoreCondReq_accesses::.cpu.data            4                       # number of StoreCondReq accesses(hits+misses)
system.cpu.dcache.StoreCondReq_accesses::total            4                       # number of StoreCondReq accesses(hits+misses)
system.cpu.dcache.SwapReq_hits::.cpu.data           24                       # number of SwapReq hits
system.cpu.dcache.SwapReq_hits::total              24                       # number of SwapReq hits
system.cpu.dcache.SwapReq_misses::.cpu.data            2                       # number of SwapReq misses
system.cpu.dcache.SwapReq_misses::total             2                       # number of SwapReq misses
system.cpu.dcache.SwapReq_miss_latency::.cpu.data        99500                       # number of SwapReq miss cycles
system.cpu.dcache.SwapReq_miss_latency::total        99500                       # number of SwapReq miss cycles
system.cpu.dcache.SwapReq_accesses::.cpu.data           26                       # number of SwapReq accesses(hits+misses)
system.cpu.dcache.SwapReq_accesses::total           26                       # number of SwapReq accesses(hits+misses)
system.cpu.dcache.SwapReq_miss_rate::.cpu.data     0.076923                       # miss rate for SwapReq accesses
system.cpu.dcache.SwapReq_miss_rate::total     0.076923                       # miss rate for SwapReq accesses
system.cpu.dcache.SwapReq_avg_miss_latency::.cpu.data        49750                       # average SwapReq miss latency
system.cpu.dcache.SwapReq_avg_miss_latency::total        49750                       # average SwapReq miss latency
system.cpu.dcache.SwapReq_mshr_misses::.cpu.data            2                       # number of SwapReq MSHR misses
system.cpu.dcache.SwapReq_mshr_misses::total            2                       # number of SwapReq MSHR misses
system.cpu.dcache.SwapReq_mshr_miss_latency::.cpu.data        97500                       # number of SwapReq MSHR miss cycles
system.cpu.dcache.SwapReq_mshr_miss_latency::total        97500                       # number of SwapReq MSHR miss cycles
system.cpu.dcache.SwapReq_mshr_miss_rate::.cpu.data     0.076923                       # mshr miss rate for SwapReq accesses
system.cpu.dcache.SwapReq_mshr_miss_rate::total     0.076923                       # mshr miss rate for SwapReq accesses
system.cpu.dcache.SwapReq_avg_mshr_miss_latency::.cpu.data        48750                       # average SwapReq mshr miss latency
system.cpu.dcache.SwapReq_avg_mshr_miss_latency::total        48750                       # average SwapReq mshr miss latency
system.cpu.dcache.prefetcher.pwrStateResidencyTicks::UNDEFINED 178273675500                       # Cumulative time (in ticks) in various power states
system.cpu.dcache.tags.pwrStateResidencyTicks::UNDEFINED 178273675500                       # Cumulative time (in ticks) in various power states
system.cpu.dcache.tags.tagsinuse          2044.059806                       # Cycle average of tags in use
system.cpu.dcache.tags.total_refs            38066995                       # Total number of references to valid blocks.
system.cpu.dcache.tags.sampled_refs          16649568                       # Sample count of references to valid blocks.
system.cpu.dcache.tags.avg_refs              2.286365                       # Average number of references to valid blocks.
system.cpu.dcache.tags.warmup_cycle            176500                       # Cycle when the warmup percentage was hit.
system.cpu.dcache.tags.occ_blocks::.cpu.data  1332.514471                       # Average occupied blocks per requestor
system.cpu.dcache.tags.occ_blocks::.cpu.dcache.prefetcher   711.545335                       # Average occupied blocks per requestor
system.cpu.dcache.tags.occ_percent::.cpu.data     0.650642                       # Average percentage of cache occupancy
system.cpu.dcache.tags.occ_percent::.cpu.dcache.prefetcher     0.347434                       # Average percentage of cache occupancy
system.cpu.dcache.tags.occ_percent::total     0.998076                       # Average percentage of cache occupancy
system.cpu.dcache.tags.occ_task_id_blocks::1022          687                       # Occupied blocks per task id
system.cpu.dcache.tags.occ_task_id_blocks::1024         1361                       # Occupied blocks per task id
system.cpu.dcache.tags.age_task_id_blocks_1022::1           73                       # Occupied blocks per task id
system.cpu.dcache.tags.age_task_id_blocks_1022::2          273                       # Occupied blocks per task id
system.cpu.dcache.tags.age_task_id_blocks_1022::4          341                       # Occupied blocks per task id
system.cpu.dcache.tags.age_task_id_blocks_1024::0           46                       # Occupied blocks per task id
system.cpu.dcache.tags.age_task_id_blocks_1024::1          141                       # Occupied blocks per task id
system.cpu.dcache.tags.age_task_id_blocks_1024::2          491                       # Occupied blocks per task id
system.cpu.dcache.tags.age_task_id_blocks_1024::4          683                       # Occupied blocks per task id
system.cpu.dcache.tags.occ_task_id_percent::1022     0.335449                       # Percentage of cache occupancy per task id
system.cpu.dcache.tags.occ_task_id_percent::1024     0.664551                       # Percentage of cache occupancy per task id
system.cpu.dcache.tags.tag_accesses          84288612                       # Number of tag accesses
system.cpu.dcache.tags.data_accesses         84288612                       # Number of data accesses
system.cpu.itb.walker.pwrStateResidencyTicks::UNDEFINED 178273675500                       # Cumulative time (in ticks) in various power states
system.cpu.itb.stage2_mmu.stage2_tlb.walker.pwrStateResidencyTicks::UNDEFINED 178273675500                       # Cumulative time (in ticks) in various power states

---------- End Simulation Statistics   ----------
