
---------- Begin Simulation Statistics ----------
final_tick                               147288603500                       # Number of ticks from beginning of simulation (restored from checkpoints and never reset)
host_inst_rate                                 531341                       # Simulator instruction rate (inst/s)
host_mem_usage                                8496396                       # Number of bytes of host memory used
host_op_rate                                   619153                       # Simulator op (including micro ops) rate (op/s)
host_seconds                                   191.07                       # Real time elapsed on the host
host_tick_rate                              770844235                       # Simulator tick rate (ticks/s)
sim_freq                                 1000000000000                       # Frequency of simulated ticks
sim_insts                                   101525559                       # Number of instructions simulated
sim_ops                                     118304287                       # Number of ops (including micro ops) simulated
sim_seconds                                  0.147289                       # Number of seconds simulated
sim_ticks                                147288603500                       # Number of ticks simulated
system.cpu.branchPred.BTBCorrect                    0                       # Number of correct BTB predictions (this stat may not work properly.
system.cpu.branchPred.BTBHitPct             99.603915                       # BTB Hit Percentage
system.cpu.branchPred.BTBHits                17040701                       # Number of BTB hits
system.cpu.branchPred.BTBLookups             17108465                       # Number of BTB lookups
system.cpu.branchPred.RASInCorrect                  0                       # Number of incorrect RAS predictions.
system.cpu.branchPred.condIncorrect             66386                       # Number of conditional branches incorrect
system.cpu.branchPred.condPredicted          17108155                       # Number of conditional branches predicted
system.cpu.branchPred.indirectHits                  1                       # Number of indirect target hits.
system.cpu.branchPred.indirectLookups             144                       # Number of indirect predictor lookups.
system.cpu.branchPred.indirectMisses              143                       # Number of indirect misses.
system.cpu.branchPred.lookups                17109249                       # Number of BP lookups
system.cpu.branchPred.usedRAS                     302                       # Number of times the RAS was used to get a target.
system.cpu.branchPredindirectMispredicted           60                       # Number of mispredicted indirect branches.
system.cpu.committedInsts                   101525559                       # Number of instructions committed
system.cpu.committedOps                     118304287                       # Number of ops (including micro ops) committed
system.cpu.cpi                               2.901508                       # CPI: cycles per instruction
system.cpu.dcache.prefetcher.num_hwpf_issued     12470983                       # number of hwpf issued
system.cpu.dcache.prefetcher.pfBufferHit        14880                       # number of redundant prefetches already in prefetch queue
system.cpu.dcache.prefetcher.pfIdentified     12875957                       # number of prefetch candidates identified
system.cpu.dcache.prefetcher.pfInCache              0                       # number of redundant prefetches already in cache/mshr dropped
system.cpu.dcache.prefetcher.pfRemovedFull            0                       # number of prefetches dropped due to prefetch queue size
system.cpu.dcache.prefetcher.pfSpanPage      21349955                       # number of prefetches that crossed the page
system.cpu.discardedOps                        374856                       # Number of ops (including micro ops) which were discarded before commit
system.cpu.dtb.accesses                             0                       # DTB accesses
system.cpu.dtb.align_faults                         0                       # Number of TLB faults due to alignment restrictions
system.cpu.dtb.domain_faults                        0                       # Number of TLB faults due to domain restrictions
system.cpu.dtb.flush_entries                        0                       # Number of entries that have been flushed from TLB
system.cpu.dtb.flush_tlb                            0                       # Number of times complete TLB was flushed
system.cpu.dtb.flush_tlb_asid                       0                       # Number of times TLB was flushed by ASID
system.cpu.dtb.flush_tlb_mva                        0                       # Number of times TLB was flushed by MVA
system.cpu.dtb.flush_tlb_mva_asid                   0                       # Number of times TLB was flushed by MVA & ASID
system.cpu.dtb.hits                                 0                       # DTB hits
system.cpu.dtb.inst_accesses                        0                       # ITB inst accesses
system.cpu.dtb.inst_hits                            0                       # ITB inst hits
system.cpu.dtb.inst_misses                          0                       # ITB inst misses
system.cpu.dtb.misses                               0                       # DTB misses
system.cpu.dtb.perms_faults                         0                       # Number of TLB faults due to permissions restrictions
system.cpu.dtb.prefetch_faults                      0                       # Number of TLB faults due to prefetch
system.cpu.dtb.read_accesses                        0                       # DTB read accesses
system.cpu.dtb.read_hits                            0                       # DTB read hits
system.cpu.dtb.read_misses                          0                       # DTB read misses
system.cpu.dtb.stage2_mmu.stage2_tlb.accesses            0                       # DTB accesses
system.cpu.dtb.stage2_mmu.stage2_tlb.align_faults            0                       # Number of TLB faults due to alignment restrictions
system.cpu.dtb.stage2_mmu.stage2_tlb.domain_faults            0                       # Number of TLB faults due to domain restrictions
system.cpu.dtb.stage2_mmu.stage2_tlb.flush_entries            0                       # Number of entries that have been flushed from TLB
system.cpu.dtb.stage2_mmu.stage2_tlb.flush_tlb            0                       # Number of times complete TLB was flushed
system.cpu.dtb.stage2_mmu.stage2_tlb.flush_tlb_asid            0                       # Number of times TLB was flushed by ASID
system.cpu.dtb.stage2_mmu.stage2_tlb.flush_tlb_mva            0                       # Number of times TLB was flushed by MVA
system.cpu.dtb.stage2_mmu.stage2_tlb.flush_tlb_mva_asid            0                       # Number of times TLB was flushed by MVA & ASID
system.cpu.dtb.stage2_mmu.stage2_tlb.hits            0                       # DTB hits
system.cpu.dtb.stage2_mmu.stage2_tlb.inst_accesses            0                       # ITB inst accesses
system.cpu.dtb.stage2_mmu.stage2_tlb.inst_hits            0                       # ITB inst hits
system.cpu.dtb.stage2_mmu.stage2_tlb.inst_misses            0                       # ITB inst misses
system.cpu.dtb.stage2_mmu.stage2_tlb.misses            0                       # DTB misses
system.cpu.dtb.stage2_mmu.stage2_tlb.perms_faults            0                       # Number of TLB faults due to permissions restrictions
system.cpu.dtb.stage2_mmu.stage2_tlb.prefetch_faults            0                       # Number of TLB faults due to prefetch
system.cpu.dtb.stage2_mmu.stage2_tlb.read_accesses            0                       # DTB read accesses
system.cpu.dtb.stage2_mmu.stage2_tlb.read_hits            0                       # DTB read hits
system.cpu.dtb.stage2_mmu.stage2_tlb.read_misses            0                       # DTB read misses
system.cpu.dtb.stage2_mmu.stage2_tlb.walker.walkRequestOrigin_Requested::Data            0                       # Table walker requests started/completed, data/inst
system.cpu.dtb.stage2_mmu.stage2_tlb.walker.walkRequestOrigin_Requested::Inst            0                       # Table walker requests started/completed, data/inst
system.cpu.dtb.stage2_mmu.stage2_tlb.walker.walkRequestOrigin_Requested::total            0                       # Table walker requests started/completed, data/inst
system.cpu.dtb.stage2_mmu.stage2_tlb.walker.walkRequestOrigin_Completed::Data            0                       # Table walker requests started/completed, data/inst
system.cpu.dtb.stage2_mmu.stage2_tlb.walker.walkRequestOrigin_Completed::Inst            0                       # Table walker requests started/completed, data/inst
system.cpu.dtb.stage2_mmu.stage2_tlb.walker.walkRequestOrigin_Completed::total            0                       # Table walker requests started/completed, data/inst
system.cpu.dtb.stage2_mmu.stage2_tlb.walker.walkRequestOrigin::total            0                       # Table walker requests started/completed, data/inst
system.cpu.dtb.stage2_mmu.stage2_tlb.walker.walks            0                       # Table walker walks requested
system.cpu.dtb.stage2_mmu.stage2_tlb.write_accesses            0                       # DTB write accesses
system.cpu.dtb.stage2_mmu.stage2_tlb.write_hits            0                       # DTB write hits
system.cpu.dtb.stage2_mmu.stage2_tlb.write_misses            0                       # DTB write misses
system.cpu.dtb.walker.walkRequestOrigin_Requested::Data            0                       # Table walker requests started/completed, data/inst
system.cpu.dtb.walker.walkRequestOrigin_Requested::Inst            0                       # Table walker requests started/completed, data/inst
system.cpu.dtb.walker.walkRequestOrigin_Requested::total            0                       # Table walker requests started/completed, data/inst
system.cpu.dtb.walker.walkRequestOrigin_Completed::Data            0                       # Table walker requests started/completed, data/inst
system.cpu.dtb.walker.walkRequestOrigin_Completed::Inst            0                       # Table walker requests started/completed, data/inst
system.cpu.dtb.walker.walkRequestOrigin_Completed::total            0                       # Table walker requests started/completed, data/inst
system.cpu.dtb.walker.walkRequestOrigin::total            0                       # Table walker requests started/completed, data/inst
system.cpu.dtb.walker.walks                         0                       # Table walker walks requested
system.cpu.dtb.write_accesses                       0                       # DTB write accesses
system.cpu.dtb.write_hits                           0                       # DTB write hits
system.cpu.dtb.write_misses                         0                       # DTB write misses
system.cpu.fetch2.amo_instructions                 29                       # Number of memory atomic instructions successfully decoded
system.cpu.fetch2.fp_instructions                   0                       # Number of floating point instructions successfully decoded
system.cpu.fetch2.int_instructions           34485899                       # Number of integer instructions successfully decoded
system.cpu.fetch2.load_instructions          17042658                       # Number of memory load instructions successfully decoded
system.cpu.fetch2.store_instructions            66349                       # Number of memory store instructions successfully decoded
system.cpu.fetch2.vec_instructions           16974981                       # Number of SIMD instructions successfully decoded
system.cpu.idleCycles                       130737262                       # Total number of cycles that the object has spent stopped
system.cpu.ipc                               0.344648                       # IPC: instructions per cycle
system.cpu.itb.accesses                             0                       # DTB accesses
system.cpu.itb.align_faults                         0                       # Number of TLB faults due to alignment restrictions
system.cpu.itb.domain_faults                        0                       # Number of TLB faults due to domain restrictions
system.cpu.itb.flush_entries                        0                       # Number of entries that have been flushed from TLB
system.cpu.itb.flush_tlb                            0                       # Number of times complete TLB was flushed
system.cpu.itb.flush_tlb_asid                       0                       # Number of times TLB was flushed by ASID
system.cpu.itb.flush_tlb_mva                        0                       # Number of times TLB was flushed by MVA
system.cpu.itb.flush_tlb_mva_asid                   0                       # Number of times TLB was flushed by MVA & ASID
system.cpu.itb.hits                                 0                       # DTB hits
system.cpu.itb.inst_accesses                        0                       # ITB inst accesses
system.cpu.itb.inst_hits                            0                       # ITB inst hits
system.cpu.itb.inst_misses                          0                       # ITB inst misses
system.cpu.itb.misses                               0                       # DTB misses
system.cpu.itb.perms_faults                         0                       # Number of TLB faults due to permissions restrictions
system.cpu.itb.prefetch_faults                      0                       # Number of TLB faults due to prefetch
system.cpu.itb.read_accesses                        0                       # DTB read accesses
system.cpu.itb.read_hits                            0                       # DTB read hits
system.cpu.itb.read_misses                          0                       # DTB read misses
system.cpu.itb.stage2_mmu.stage2_tlb.accesses            0                       # DTB accesses
system.cpu.itb.stage2_mmu.stage2_tlb.align_faults            0                       # Number of TLB faults due to alignment restrictions
system.cpu.itb.stage2_mmu.stage2_tlb.domain_faults            0                       # Number of TLB faults due to domain restrictions
system.cpu.itb.stage2_mmu.stage2_tlb.flush_entries            0                       # Number of entries that have been flushed from TLB
system.cpu.itb.stage2_mmu.stage2_tlb.flush_tlb            0                       # Number of times complete TLB was flushed
system.cpu.itb.stage2_mmu.stage2_tlb.flush_tlb_asid            0                       # Number of times TLB was flushed by ASID
system.cpu.itb.stage2_mmu.stage2_tlb.flush_tlb_mva            0                       # Number of times TLB was flushed by MVA
system.cpu.itb.stage2_mmu.stage2_tlb.flush_tlb_mva_asid            0                       # Number of times TLB was flushed by MVA & ASID
system.cpu.itb.stage2_mmu.stage2_tlb.hits            0                       # DTB hits
system.cpu.itb.stage2_mmu.stage2_tlb.inst_accesses            0                       # ITB inst accesses
system.cpu.itb.stage2_mmu.stage2_tlb.inst_hits            0                       # ITB inst hits
system.cpu.itb.stage2_mmu.stage2_tlb.inst_misses            0                       # ITB inst misses
system.cpu.itb.stage2_mmu.stage2_tlb.misses            0                       # DTB misses
system.cpu.itb.stage2_mmu.stage2_tlb.perms_faults            0                       # Number of TLB faults due to permissions restrictions
system.cpu.itb.stage2_mmu.stage2_tlb.prefetch_faults            0                       # Number of TLB faults due to prefetch
system.cpu.itb.stage2_mmu.stage2_tlb.read_accesses            0                       # DTB read accesses
system.cpu.itb.stage2_mmu.stage2_tlb.read_hits            0                       # DTB read hits
system.cpu.itb.stage2_mmu.stage2_tlb.read_misses            0                       # DTB read misses
system.cpu.itb.stage2_mmu.stage2_tlb.walker.walkRequestOrigin_Requested::Data            0                       # Table walker requests started/completed, data/inst
system.cpu.itb.stage2_mmu.stage2_tlb.walker.walkRequestOrigin_Requested::Inst            0                       # Table walker requests started/completed, data/inst
system.cpu.itb.stage2_mmu.stage2_tlb.walker.walkRequestOrigin_Requested::total            0                       # Table walker requests started/completed, data/inst
system.cpu.itb.stage2_mmu.stage2_tlb.walker.walkRequestOrigin_Completed::Data            0                       # Table walker requests started/completed, data/inst
system.cpu.itb.stage2_mmu.stage2_tlb.walker.walkRequestOrigin_Completed::Inst            0                       # Table walker requests started/completed, data/inst
system.cpu.itb.stage2_mmu.stage2_tlb.walker.walkRequestOrigin_Completed::total            0                       # Table walker requests started/completed, data/inst
system.cpu.itb.stage2_mmu.stage2_tlb.walker.walkRequestOrigin::total            0                       # Table walker requests started/completed, data/inst
system.cpu.itb.stage2_mmu.stage2_tlb.walker.walks            0                       # Table walker walks requested
system.cpu.itb.stage2_mmu.stage2_tlb.write_accesses            0                       # DTB write accesses
system.cpu.itb.stage2_mmu.stage2_tlb.write_hits            0                       # DTB write hits
system.cpu.itb.stage2_mmu.stage2_tlb.write_misses            0                       # DTB write misses
system.cpu.itb.walker.walkRequestOrigin_Requested::Data            0                       # Table walker requests started/completed, data/inst
system.cpu.itb.walker.walkRequestOrigin_Requested::Inst            0                       # Table walker requests started/completed, data/inst
system.cpu.itb.walker.walkRequestOrigin_Requested::total            0                       # Table walker requests started/completed, data/inst
system.cpu.itb.walker.walkRequestOrigin_Completed::Data            0                       # Table walker requests started/completed, data/inst
system.cpu.itb.walker.walkRequestOrigin_Completed::Inst            0                       # Table walker requests started/completed, data/inst
system.cpu.itb.walker.walkRequestOrigin_Completed::total            0                       # Table walker requests started/completed, data/inst
system.cpu.itb.walker.walkRequestOrigin::total            0                       # Table walker requests started/completed, data/inst
system.cpu.itb.walker.walks                         0                       # Table walker walks requested
system.cpu.itb.write_accesses                       0                       # DTB write accesses
system.cpu.itb.write_hits                           0                       # DTB write hits
system.cpu.itb.write_misses                         0                       # DTB write misses
system.cpu.numCycles                        294577207                       # number of cpu cycles simulated
system.cpu.numFetchSuspends                         0                       # Number of times Execute suspended instruction fetching
system.cpu.numWorkItemsCompleted                    0                       # number of work items this cpu completed
system.cpu.numWorkItemsStarted                      0                       # number of work items this cpu started
system.cpu.op_class_0::No_OpClass                  33      0.00%      0.00% # Class of committed instruction
system.cpu.op_class_0::IntAlu                67838720     57.34%     57.34% # Class of committed instruction
system.cpu.op_class_0::IntMult                      9      0.00%     57.34% # Class of committed instruction
system.cpu.op_class_0::IntDiv                       3      0.00%     57.34% # Class of committed instruction
system.cpu.op_class_0::FloatAdd                     0      0.00%     57.34% # Class of committed instruction
system.cpu.op_class_0::FloatCmp                     0      0.00%     57.34% # Class of committed instruction
system.cpu.op_class_0::FloatCvt                     1      0.00%     57.34% # Class of committed instruction
system.cpu.op_class_0::FloatMult                    0      0.00%     57.34% # Class of committed instruction
system.cpu.op_class_0::FloatMultAcc          16777216     14.18%     71.52% # Class of committed instruction
system.cpu.op_class_0::FloatDiv                     1      0.00%     71.52% # Class of committed instruction
system.cpu.op_class_0::FloatMisc                    1      0.00%     71.52% # Class of committed instruction
system.cpu.op_class_0::FloatSqrt                    0      0.00%     71.52% # Class of committed instruction
system.cpu.op_class_0::SimdAdd                     13      0.00%     71.52% # Class of committed instruction
system.cpu.op_class_0::SimdAddAcc                   0      0.00%     71.52% # Class of committed instruction
system.cpu.op_class_0::SimdAlu                     12      0.00%     71.52% # Class of committed instruction
system.cpu.op_class_0::SimdCmp                     12      0.00%     71.52% # Class of committed instruction
system.cpu.op_class_0::SimdCvt                      0      0.00%     71.52% # Class of committed instruction
system.cpu.op_class_0::SimdMisc                    15      0.00%     71.52% # Class of committed instruction
system.cpu.op_class_0::SimdMult                     0      0.00%     71.52% # Class of committed instruction
system.cpu.op_class_0::SimdMultAcc                  0      0.00%     71.52% # Class of committed instruction
system.cpu.op_class_0::SimdShift                    0      0.00%     71.52% # Class of committed instruction
system.cpu.op_class_0::SimdShiftAcc                 0      0.00%     71.52% # Class of committed instruction
system.cpu.op_class_0::SimdDiv                      0      0.00%     71.52% # Class of committed instruction
system.cpu.op_class_0::SimdSqrt                     0      0.00%     71.52% # Class of committed instruction
system.cpu.op_class_0::SimdFloatAdd                 0      0.00%     71.52% # Class of committed instruction
system.cpu.op_class_0::SimdFloatAlu                 0      0.00%     71.52% # Class of committed instruction
system.cpu.op_class_0::SimdFloatCmp                 0      0.00%     71.52% # Class of committed instruction
system.cpu.op_class_0::SimdFloatCvt                 0      0.00%     71.52% # Class of committed instruction
system.cpu.op_class_0::SimdFloatDiv                 0      0.00%     71.52% # Class of committed instruction
system.cpu.op_class_0::SimdFloatMisc                0      0.00%     71.52% # Class of committed instruction
system.cpu.op_class_0::SimdFloatMult                0      0.00%     71.52% # Class of committed instruction
system.cpu.op_class_0::SimdFloatMultAcc             0      0.00%     71.52% # Class of committed instruction
system.cpu.op_class_0::SimdFloatSqrt                0      0.00%     71.52% # Class of committed instruction
system.cpu.op_class_0::SimdReduceAdd                0      0.00%     71.52% # Class of committed instruction
system.cpu.op_class_0::SimdReduceAlu                0      0.00%     71.52% # Class of committed instruction
system.cpu.op_class_0::SimdReduceCmp                0      0.00%     71.52% # Class of committed instruction
system.cpu.op_class_0::SimdFloatReduceAdd            0      0.00%     71.52% # Class of committed instruction
system.cpu.op_class_0::SimdFloatReduceCmp            0      0.00%     71.52% # Class of committed instruction
system.cpu.op_class_0::SimdAes                      0      0.00%     71.52% # Class of committed instruction
system.cpu.op_class_0::SimdAesMix                   0      0.00%     71.52% # Class of committed instruction
system.cpu.op_class_0::SimdSha1Hash                 0      0.00%     71.52% # Class of committed instruction
system.cpu.op_class_0::SimdSha1Hash2                0      0.00%     71.52% # Class of committed instruction
system.cpu.op_class_0::SimdSha256Hash               0      0.00%     71.52% # Class of committed instruction
system.cpu.op_class_0::SimdSha256Hash2              0      0.00%     71.52% # Class of committed instruction
system.cpu.op_class_0::SimdShaSigma2                0      0.00%     71.52% # Class of committed instruction
system.cpu.op_class_0::SimdShaSigma3                0      0.00%     71.52% # Class of committed instruction
system.cpu.op_class_0::SimdPredAlu                  0      0.00%     71.52% # Class of committed instruction
system.cpu.op_class_0::MemRead               33621209     28.42%     99.94% # Class of committed instruction
system.cpu.op_class_0::MemWrite                 67042      0.06%    100.00% # Class of committed instruction
system.cpu.op_class_0::FloatMemRead                 0      0.00%    100.00% # Class of committed instruction
system.cpu.op_class_0::FloatMemWrite                0      0.00%    100.00% # Class of committed instruction
system.cpu.op_class_0::IprAccess                    0      0.00%    100.00% # Class of committed instruction
system.cpu.op_class_0::InstPrefetch                 0      0.00%    100.00% # Class of committed instruction
system.cpu.op_class_0::total                118304287                       # Class of committed instruction
system.cpu.tickCycles                       163839945                       # Number of cycles that the object actually ticked
system.cpu.workload.numSyscalls                    16                       # Number of system calls
system.l2.prefetcher.num_hwpf_issued             1972                       # number of hwpf issued
system.l2.prefetcher.pfBufferHit                    0                       # number of redundant prefetches already in prefetch queue
system.l2.prefetcher.pfIdentified                1972                       # number of prefetch candidates identified
system.l2.prefetcher.pfInCache                      0                       # number of redundant prefetches already in cache/mshr dropped
system.l2.prefetcher.pfRemovedFull                  0                       # number of prefetches dropped due to prefetch queue size
system.l2.prefetcher.pfSpanPage                   296                       # number of prefetches that crossed the page
system.membus.snoop_filter.hit_multi_requests            0                       # Number of requests hitting in the snoop filter with multiple (>1) holders of the requested data.
system.membus.snoop_filter.hit_multi_snoops            0                       # Number of snoops hitting in the snoop filter with multiple (>1) holders of the requested data.
system.membus.snoop_filter.hit_single_requests            0                       # Number of requests hitting in the snoop filter with a single holder of the requested data.
system.membus.snoop_filter.hit_single_snoops            0                       # Number of snoops hitting in the snoop filter with a single holder of the requested data.
system.membus.snoop_filter.tot_requests         13064                       # Total number of requests made to the snoop filter.
system.membus.snoop_filter.tot_snoops               0                       # Total number of snoops made to the snoop filter.
system.tol2bus.snoop_filter.hit_multi_requests            4                       # Number of requests hitting in the snoop filter with multiple (>1) holders of the requested data.
system.tol2bus.snoop_filter.hit_multi_snoops            0                       # Number of snoops hitting in the snoop filter with multiple (>1) holders of the requested data.
system.tol2bus.snoop_filter.hit_single_requests     16641074                       # Number of requests hitting in the snoop filter with a single holder of the requested data.
system.tol2bus.snoop_filter.hit_single_snoops            8                       # Number of snoops hitting in the snoop filter with a single holder of the requested data.
system.tol2bus.snoop_filter.tot_requests     33284565                       # Total number of requests made to the snoop filter.
system.tol2bus.snoop_filter.tot_snoops              8                       # Total number of snoops made to the snoop filter.
system.membus.pwrStateResidencyTicks::UNDEFINED 147288603500                       # Cumulative time (in ticks) in various power states
system.membus.trans_dist::ReadResp              12976                       # Transaction distribution
system.membus.trans_dist::ReadExReq                82                       # Transaction distribution
system.membus.trans_dist::ReadExResp               82                       # Transaction distribution
system.membus.trans_dist::ReadSharedReq         12976                       # Transaction distribution
system.membus.trans_dist::InvalidateReq             6                       # Transaction distribution
system.membus.pkt_count_system.l2.mem_side::system.mem_ctrls.port        26122                       # Packet count per connected master and slave (bytes)
system.membus.pkt_count::total                  26122                       # Packet count per connected master and slave (bytes)
system.membus.pkt_size_system.l2.mem_side::system.mem_ctrls.port       835712                       # Cumulative packet size per connected master and slave (bytes)
system.membus.pkt_size::total                  835712                       # Cumulative packet size per connected master and slave (bytes)
system.membus.snoops                                0                       # Total snoops (count)
system.membus.snoopTraffic                          0                       # Total snoop traffic (bytes)
system.membus.snoop_fanout::samples             13064                       # Request fanout histogram
system.membus.snoop_fanout::mean                    0                       # Request fanout histogram
system.membus.snoop_fanout::stdev                   0                       # Request fanout histogram
system.membus.snoop_fanout::underflows              0      0.00%      0.00% # Request fanout histogram
system.membus.snoop_fanout::0                   13064    100.00%    100.00% # Request fanout histogram
system.membus.snoop_fanout::1                       0      0.00%    100.00% # Request fanout histogram
system.membus.snoop_fanout::overflows               0      0.00%    100.00% # Request fanout histogram
system.membus.snoop_fanout::min_value               0                       # Request fanout histogram
system.membus.snoop_fanout::max_value               0                       # Request fanout histogram
system.membus.snoop_fanout::total               13064                       # Request fanout histogram
system.membus.respLayer1.occupancy           68430100                       # Layer occupancy (ticks)
system.membus.respLayer1.utilization              0.0                       # Layer utilization (%)
system.membus.reqLayer0.occupancy            16049039                       # Layer occupancy (ticks)
system.membus.reqLayer0.utilization               0.0                       # Layer utilization (%)
system.tol2bus.pwrStateResidencyTicks::UNDEFINED 147288603500                       # Cumulative time (in ticks) in various power states
system.tol2bus.trans_dist::ReadResp          16578094                       # Transaction distribution
system.tol2bus.trans_dist::WritebackDirty        68447                       # Transaction distribution
system.tol2bus.trans_dist::WritebackClean          168                       # Transaction distribution
system.tol2bus.trans_dist::CleanEvict        16572467                       # Transaction distribution
system.tol2bus.trans_dist::HardPFReq             3434                       # Transaction distribution
system.tol2bus.trans_dist::ReadExReq            65391                       # Transaction distribution
system.tol2bus.trans_dist::ReadExResp           65391                       # Transaction distribution
system.tol2bus.trans_dist::ReadCleanReq           537                       # Transaction distribution
system.tol2bus.trans_dist::ReadSharedReq     16577557                       # Transaction distribution
system.tol2bus.trans_dist::InvalidateReq            6                       # Transaction distribution
system.tol2bus.trans_dist::InvalidateResp            6                       # Transaction distribution
system.tol2bus.pkt_count_system.cpu.icache.mem_side::system.l2.cpu_side         1242                       # Packet count per connected master and slave (bytes)
system.tol2bus.pkt_count_system.cpu.dcache.mem_side::system.l2.cpu_side     49926814                       # Packet count per connected master and slave (bytes)
system.tol2bus.pkt_count::total              49928056                       # Packet count per connected master and slave (bytes)
system.tol2bus.pkt_size_system.cpu.icache.mem_side::system.l2.cpu_side        45120                       # Cumulative packet size per connected master and slave (bytes)
system.tol2bus.pkt_size_system.cpu.dcache.mem_side::system.l2.cpu_side   1069529280                       # Cumulative packet size per connected master and slave (bytes)
system.tol2bus.pkt_size::total             1069574400                       # Cumulative packet size per connected master and slave (bytes)
system.tol2bus.snoops                            3442                       # Total snoops (count)
system.tol2bus.snoopTraffic                         0                       # Total snoop traffic (bytes)
system.tol2bus.snoop_fanout::samples         16646933                       # Request fanout histogram
system.tol2bus.snoop_fanout::mean            0.000001                       # Request fanout histogram
system.tol2bus.snoop_fanout::stdev           0.000849                       # Request fanout histogram
system.tol2bus.snoop_fanout::underflows             0      0.00%      0.00% # Request fanout histogram
system.tol2bus.snoop_fanout::0               16646921    100.00%    100.00% # Request fanout histogram
system.tol2bus.snoop_fanout::1                     12      0.00%    100.00% # Request fanout histogram
system.tol2bus.snoop_fanout::2                      0      0.00%    100.00% # Request fanout histogram
system.tol2bus.snoop_fanout::overflows              0      0.00%    100.00% # Request fanout histogram
system.tol2bus.snoop_fanout::min_value              0                       # Request fanout histogram
system.tol2bus.snoop_fanout::max_value              1                       # Request fanout histogram
system.tol2bus.snoop_fanout::total           16646933                       # Request fanout histogram
system.tol2bus.reqLayer0.occupancy        16900278285                       # Layer occupancy (ticks)
system.tol2bus.reqLayer0.utilization             11.5                       # Layer utilization (%)
system.tol2bus.respLayer1.occupancy       24964425499                       # Layer occupancy (ticks)
system.tol2bus.respLayer1.utilization            16.9                       # Layer utilization (%)
system.tol2bus.respLayer0.occupancy            805500                       # Layer occupancy (ticks)
system.tol2bus.respLayer0.utilization             0.0                       # Layer utilization (%)
system.voltage_domain.voltage                       1                       # Voltage in Volts
system.clk_domain.clock                          1000                       # Clock period in ticks
system.l2.pwrStateResidencyTicks::UNDEFINED 147288603500                       # Cumulative time (in ticks) in various power states
system.l2.demand_hits::.cpu.inst                   44                       # number of demand (read+write) hits
system.l2.demand_hits::.cpu.data              8352845                       # number of demand (read+write) hits
system.l2.demand_hits::.cpu.dcache.prefetcher      8279510                       # number of demand (read+write) hits
system.l2.demand_hits::total                 16632399                       # number of demand (read+write) hits
system.l2.overall_hits::.cpu.inst                  44                       # number of overall hits
system.l2.overall_hits::.cpu.data             8352845                       # number of overall hits
system.l2.overall_hits::.cpu.dcache.prefetcher      8279510                       # number of overall hits
system.l2.overall_hits::total                16632399                       # number of overall hits
system.l2.demand_misses::.cpu.inst                493                       # number of demand (read+write) misses
system.l2.demand_misses::.cpu.data               2926                       # number of demand (read+write) misses
system.l2.demand_misses::.cpu.dcache.prefetcher         7667                       # number of demand (read+write) misses
system.l2.demand_misses::total                  11086                       # number of demand (read+write) misses
system.l2.overall_misses::.cpu.inst               493                       # number of overall misses
system.l2.overall_misses::.cpu.data              2926                       # number of overall misses
system.l2.overall_misses::.cpu.dcache.prefetcher         7667                       # number of overall misses
system.l2.overall_misses::total                 11086                       # number of overall misses
system.l2.demand_miss_latency::.cpu.inst     37502000                       # number of demand (read+write) miss cycles
system.l2.demand_miss_latency::.cpu.data    236158500                       # number of demand (read+write) miss cycles
system.l2.demand_miss_latency::.cpu.dcache.prefetcher    621891395                       # number of demand (read+write) miss cycles
system.l2.demand_miss_latency::total        895551895                       # number of demand (read+write) miss cycles
system.l2.overall_miss_latency::.cpu.inst     37502000                       # number of overall miss cycles
system.l2.overall_miss_latency::.cpu.data    236158500                       # number of overall miss cycles
system.l2.overall_miss_latency::.cpu.dcache.prefetcher    621891395                       # number of overall miss cycles
system.l2.overall_miss_latency::total       895551895                       # number of overall miss cycles
system.l2.demand_accesses::.cpu.inst              537                       # number of demand (read+write) accesses
system.l2.demand_accesses::.cpu.data          8355771                       # number of demand (read+write) accesses
system.l2.demand_accesses::.cpu.dcache.prefetcher      8287177                       # number of demand (read+write) accesses
system.l2.demand_accesses::total             16643485                       # number of demand (read+write) accesses
system.l2.overall_accesses::.cpu.inst             537                       # number of overall (read+write) accesses
system.l2.overall_accesses::.cpu.data         8355771                       # number of overall (read+write) accesses
system.l2.overall_accesses::.cpu.dcache.prefetcher      8287177                       # number of overall (read+write) accesses
system.l2.overall_accesses::total            16643485                       # number of overall (read+write) accesses
system.l2.demand_miss_rate::.cpu.inst        0.918063                       # miss rate for demand accesses
system.l2.demand_miss_rate::.cpu.data        0.000350                       # miss rate for demand accesses
system.l2.demand_miss_rate::.cpu.dcache.prefetcher     0.000925                       # miss rate for demand accesses
system.l2.demand_miss_rate::total            0.000666                       # miss rate for demand accesses
system.l2.overall_miss_rate::.cpu.inst       0.918063                       # miss rate for overall accesses
system.l2.overall_miss_rate::.cpu.data       0.000350                       # miss rate for overall accesses
system.l2.overall_miss_rate::.cpu.dcache.prefetcher     0.000925                       # miss rate for overall accesses
system.l2.overall_miss_rate::total           0.000666                       # miss rate for overall accesses
system.l2.demand_avg_miss_latency::.cpu.inst 76068.965517                       # average overall miss latency
system.l2.demand_avg_miss_latency::.cpu.data 80710.355434                       # average overall miss latency
system.l2.demand_avg_miss_latency::.cpu.dcache.prefetcher 81112.742272                       # average overall miss latency
system.l2.demand_avg_miss_latency::total 80782.238409                       # average overall miss latency
system.l2.overall_avg_miss_latency::.cpu.inst 76068.965517                       # average overall miss latency
system.l2.overall_avg_miss_latency::.cpu.data 80710.355434                       # average overall miss latency
system.l2.overall_avg_miss_latency::.cpu.dcache.prefetcher 81112.742272                       # average overall miss latency
system.l2.overall_avg_miss_latency::total 80782.238409                       # average overall miss latency
system.l2.blocked_cycles::no_mshrs                  0                       # number of cycles access was blocked
system.l2.blocked_cycles::no_targets                0                       # number of cycles access was blocked
system.l2.blocked::no_mshrs                         0                       # number of cycles access was blocked
system.l2.blocked::no_targets                       0                       # number of cycles access was blocked
system.l2.avg_blocked_cycles::no_mshrs            nan                       # average number of cycles each access was blocked
system.l2.avg_blocked_cycles::no_targets          nan                       # average number of cycles each access was blocked
system.l2.demand_mshr_misses::.cpu.inst           493                       # number of demand (read+write) MSHR misses
system.l2.demand_mshr_misses::.cpu.data          2926                       # number of demand (read+write) MSHR misses
system.l2.demand_mshr_misses::.cpu.dcache.prefetcher         7667                       # number of demand (read+write) MSHR misses
system.l2.demand_mshr_misses::total             11086                       # number of demand (read+write) MSHR misses
system.l2.overall_mshr_misses::.cpu.inst          493                       # number of overall MSHR misses
system.l2.overall_mshr_misses::.cpu.data         2926                       # number of overall MSHR misses
system.l2.overall_mshr_misses::.cpu.dcache.prefetcher         7667                       # number of overall MSHR misses
system.l2.overall_mshr_misses::.l2.prefetcher         1972                       # number of overall MSHR misses
system.l2.overall_mshr_misses::total            13058                       # number of overall MSHR misses
system.l2.demand_mshr_miss_latency::.cpu.inst     32572000                       # number of demand (read+write) MSHR miss cycles
system.l2.demand_mshr_miss_latency::.cpu.data    206898500                       # number of demand (read+write) MSHR miss cycles
system.l2.demand_mshr_miss_latency::.cpu.dcache.prefetcher    545221395                       # number of demand (read+write) MSHR miss cycles
system.l2.demand_mshr_miss_latency::total    784691895                       # number of demand (read+write) MSHR miss cycles
system.l2.overall_mshr_miss_latency::.cpu.inst     32572000                       # number of overall MSHR miss cycles
system.l2.overall_mshr_miss_latency::.cpu.data    206898500                       # number of overall MSHR miss cycles
system.l2.overall_mshr_miss_latency::.cpu.dcache.prefetcher    545221395                       # number of overall MSHR miss cycles
system.l2.overall_mshr_miss_latency::.l2.prefetcher    144024524                       # number of overall MSHR miss cycles
system.l2.overall_mshr_miss_latency::total    928716419                       # number of overall MSHR miss cycles
system.l2.demand_mshr_miss_rate::.cpu.inst     0.918063                       # mshr miss rate for demand accesses
system.l2.demand_mshr_miss_rate::.cpu.data     0.000350                       # mshr miss rate for demand accesses
system.l2.demand_mshr_miss_rate::.cpu.dcache.prefetcher     0.000925                       # mshr miss rate for demand accesses
system.l2.demand_mshr_miss_rate::total       0.000666                       # mshr miss rate for demand accesses
system.l2.overall_mshr_miss_rate::.cpu.inst     0.918063                       # mshr miss rate for overall accesses
system.l2.overall_mshr_miss_rate::.cpu.data     0.000350                       # mshr miss rate for overall accesses
system.l2.overall_mshr_miss_rate::.cpu.dcache.prefetcher     0.000925                       # mshr miss rate for overall accesses
system.l2.overall_mshr_miss_rate::.l2.prefetcher          inf                       # mshr miss rate for overall accesses
system.l2.overall_mshr_miss_rate::total      0.000785                       # mshr miss rate for overall accesses
system.l2.demand_avg_mshr_miss_latency::.cpu.inst 66068.965517                       # average overall mshr miss latency
system.l2.demand_avg_mshr_miss_latency::.cpu.data 70710.355434                       # average overall mshr miss latency
system.l2.demand_avg_mshr_miss_latency::.cpu.dcache.prefetcher 71112.742272                       # average overall mshr miss latency
system.l2.demand_avg_mshr_miss_latency::total 70782.238409                       # average overall mshr miss latency
system.l2.overall_avg_mshr_miss_latency::.cpu.inst 66068.965517                       # average overall mshr miss latency
system.l2.overall_avg_mshr_miss_latency::.cpu.data 70710.355434                       # average overall mshr miss latency
system.l2.overall_avg_mshr_miss_latency::.cpu.dcache.prefetcher 71112.742272                       # average overall mshr miss latency
system.l2.overall_avg_mshr_miss_latency::.l2.prefetcher 73034.748479                       # average overall mshr miss latency
system.l2.overall_avg_mshr_miss_latency::total 71122.409174                       # average overall mshr miss latency
system.l2.replacements                              8                       # number of replacements
system.l2.WritebackDirty_hits::.writebacks        68447                       # number of WritebackDirty hits
system.l2.WritebackDirty_hits::total            68447                       # number of WritebackDirty hits
system.l2.WritebackDirty_accesses::.writebacks        68447                       # number of WritebackDirty accesses(hits+misses)
system.l2.WritebackDirty_accesses::total        68447                       # number of WritebackDirty accesses(hits+misses)
system.l2.WritebackClean_hits::.writebacks          166                       # number of WritebackClean hits
system.l2.WritebackClean_hits::total              166                       # number of WritebackClean hits
system.l2.WritebackClean_accesses::.writebacks          166                       # number of WritebackClean accesses(hits+misses)
system.l2.WritebackClean_accesses::total          166                       # number of WritebackClean accesses(hits+misses)
system.l2.HardPFReq_mshr_misses::.l2.prefetcher         1972                       # number of HardPFReq MSHR misses
system.l2.HardPFReq_mshr_misses::total           1972                       # number of HardPFReq MSHR misses
system.l2.HardPFReq_mshr_miss_latency::.l2.prefetcher    144024524                       # number of HardPFReq MSHR miss cycles
system.l2.HardPFReq_mshr_miss_latency::total    144024524                       # number of HardPFReq MSHR miss cycles
system.l2.HardPFReq_mshr_miss_rate::.l2.prefetcher          inf                       # mshr miss rate for HardPFReq accesses
system.l2.HardPFReq_mshr_miss_rate::total          inf                       # mshr miss rate for HardPFReq accesses
system.l2.HardPFReq_avg_mshr_miss_latency::.l2.prefetcher 73034.748479                       # average HardPFReq mshr miss latency
system.l2.HardPFReq_avg_mshr_miss_latency::total 73034.748479                       # average HardPFReq mshr miss latency
system.l2.ReadExReq_hits::.cpu.data             65309                       # number of ReadExReq hits
system.l2.ReadExReq_hits::total                 65309                       # number of ReadExReq hits
system.l2.ReadExReq_misses::.cpu.data              82                       # number of ReadExReq misses
system.l2.ReadExReq_misses::total                  82                       # number of ReadExReq misses
system.l2.ReadExReq_miss_latency::.cpu.data      7172000                       # number of ReadExReq miss cycles
system.l2.ReadExReq_miss_latency::total       7172000                       # number of ReadExReq miss cycles
system.l2.ReadExReq_accesses::.cpu.data         65391                       # number of ReadExReq accesses(hits+misses)
system.l2.ReadExReq_accesses::total             65391                       # number of ReadExReq accesses(hits+misses)
system.l2.ReadExReq_miss_rate::.cpu.data     0.001254                       # miss rate for ReadExReq accesses
system.l2.ReadExReq_miss_rate::total         0.001254                       # miss rate for ReadExReq accesses
system.l2.ReadExReq_avg_miss_latency::.cpu.data 87463.414634                       # average ReadExReq miss latency
system.l2.ReadExReq_avg_miss_latency::total 87463.414634                       # average ReadExReq miss latency
system.l2.ReadExReq_mshr_misses::.cpu.data           82                       # number of ReadExReq MSHR misses
system.l2.ReadExReq_mshr_misses::total             82                       # number of ReadExReq MSHR misses
system.l2.ReadExReq_mshr_miss_latency::.cpu.data      6352000                       # number of ReadExReq MSHR miss cycles
system.l2.ReadExReq_mshr_miss_latency::total      6352000                       # number of ReadExReq MSHR miss cycles
system.l2.ReadExReq_mshr_miss_rate::.cpu.data     0.001254                       # mshr miss rate for ReadExReq accesses
system.l2.ReadExReq_mshr_miss_rate::total     0.001254                       # mshr miss rate for ReadExReq accesses
system.l2.ReadExReq_avg_mshr_miss_latency::.cpu.data 77463.414634                       # average ReadExReq mshr miss latency
system.l2.ReadExReq_avg_mshr_miss_latency::total 77463.414634                       # average ReadExReq mshr miss latency
system.l2.ReadCleanReq_hits::.cpu.inst             44                       # number of ReadCleanReq hits
system.l2.ReadCleanReq_hits::total                 44                       # number of ReadCleanReq hits
system.l2.ReadCleanReq_misses::.cpu.inst          493                       # number of ReadCleanReq misses
system.l2.ReadCleanReq_misses::total              493                       # number of ReadCleanReq misses
system.l2.ReadCleanReq_miss_latency::.cpu.inst     37502000                       # number of ReadCleanReq miss cycles
system.l2.ReadCleanReq_miss_latency::total     37502000                       # number of ReadCleanReq miss cycles
system.l2.ReadCleanReq_accesses::.cpu.inst          537                       # number of ReadCleanReq accesses(hits+misses)
system.l2.ReadCleanReq_accesses::total            537                       # number of ReadCleanReq accesses(hits+misses)
system.l2.ReadCleanReq_miss_rate::.cpu.inst     0.918063                       # miss rate for ReadCleanReq accesses
system.l2.ReadCleanReq_miss_rate::total      0.918063                       # miss rate for ReadCleanReq accesses
system.l2.ReadCleanReq_avg_miss_latency::.cpu.inst 76068.965517                       # average ReadCleanReq miss latency
system.l2.ReadCleanReq_avg_miss_latency::total 76068.965517                       # average ReadCleanReq miss latency
system.l2.ReadCleanReq_mshr_misses::.cpu.inst          493                       # number of ReadCleanReq MSHR misses
system.l2.ReadCleanReq_mshr_misses::total          493                       # number of ReadCleanReq MSHR misses
system.l2.ReadCleanReq_mshr_miss_latency::.cpu.inst     32572000                       # number of ReadCleanReq MSHR miss cycles
system.l2.ReadCleanReq_mshr_miss_latency::total     32572000                       # number of ReadCleanReq MSHR miss cycles
system.l2.ReadCleanReq_mshr_miss_rate::.cpu.inst     0.918063                       # mshr miss rate for ReadCleanReq accesses
system.l2.ReadCleanReq_mshr_miss_rate::total     0.918063                       # mshr miss rate for ReadCleanReq accesses
system.l2.ReadCleanReq_avg_mshr_miss_latency::.cpu.inst 66068.965517                       # average ReadCleanReq mshr miss latency
system.l2.ReadCleanReq_avg_mshr_miss_latency::total 66068.965517                       # average ReadCleanReq mshr miss latency
system.l2.ReadSharedReq_hits::.cpu.data       8287536                       # number of ReadSharedReq hits
system.l2.ReadSharedReq_hits::.cpu.dcache.prefetcher      8279510                       # number of ReadSharedReq hits
system.l2.ReadSharedReq_hits::total          16567046                       # number of ReadSharedReq hits
system.l2.ReadSharedReq_misses::.cpu.data         2844                       # number of ReadSharedReq misses
system.l2.ReadSharedReq_misses::.cpu.dcache.prefetcher         7667                       # number of ReadSharedReq misses
system.l2.ReadSharedReq_misses::total           10511                       # number of ReadSharedReq misses
system.l2.ReadSharedReq_miss_latency::.cpu.data    228986500                       # number of ReadSharedReq miss cycles
system.l2.ReadSharedReq_miss_latency::.cpu.dcache.prefetcher    621891395                       # number of ReadSharedReq miss cycles
system.l2.ReadSharedReq_miss_latency::total    850877895                       # number of ReadSharedReq miss cycles
system.l2.ReadSharedReq_accesses::.cpu.data      8290380                       # number of ReadSharedReq accesses(hits+misses)
system.l2.ReadSharedReq_accesses::.cpu.dcache.prefetcher      8287177                       # number of ReadSharedReq accesses(hits+misses)
system.l2.ReadSharedReq_accesses::total      16577557                       # number of ReadSharedReq accesses(hits+misses)
system.l2.ReadSharedReq_miss_rate::.cpu.data     0.000343                       # miss rate for ReadSharedReq accesses
system.l2.ReadSharedReq_miss_rate::.cpu.dcache.prefetcher     0.000925                       # miss rate for ReadSharedReq accesses
system.l2.ReadSharedReq_miss_rate::total     0.000634                       # miss rate for ReadSharedReq accesses
system.l2.ReadSharedReq_avg_miss_latency::.cpu.data 80515.646976                       # average ReadSharedReq miss latency
system.l2.ReadSharedReq_avg_miss_latency::.cpu.dcache.prefetcher 81112.742272                       # average ReadSharedReq miss latency
system.l2.ReadSharedReq_avg_miss_latency::total 80951.183998                       # average ReadSharedReq miss latency
system.l2.ReadSharedReq_mshr_misses::.cpu.data         2844                       # number of ReadSharedReq MSHR misses
system.l2.ReadSharedReq_mshr_misses::.cpu.dcache.prefetcher         7667                       # number of ReadSharedReq MSHR misses
system.l2.ReadSharedReq_mshr_misses::total        10511                       # number of ReadSharedReq MSHR misses
system.l2.ReadSharedReq_mshr_miss_latency::.cpu.data    200546500                       # number of ReadSharedReq MSHR miss cycles
system.l2.ReadSharedReq_mshr_miss_latency::.cpu.dcache.prefetcher    545221395                       # number of ReadSharedReq MSHR miss cycles
system.l2.ReadSharedReq_mshr_miss_latency::total    745767895                       # number of ReadSharedReq MSHR miss cycles
system.l2.ReadSharedReq_mshr_miss_rate::.cpu.data     0.000343                       # mshr miss rate for ReadSharedReq accesses
system.l2.ReadSharedReq_mshr_miss_rate::.cpu.dcache.prefetcher     0.000925                       # mshr miss rate for ReadSharedReq accesses
system.l2.ReadSharedReq_mshr_miss_rate::total     0.000634                       # mshr miss rate for ReadSharedReq accesses
system.l2.ReadSharedReq_avg_mshr_miss_latency::.cpu.data 70515.646976                       # average ReadSharedReq mshr miss latency
system.l2.ReadSharedReq_avg_mshr_miss_latency::.cpu.dcache.prefetcher 71112.742272                       # average ReadSharedReq mshr miss latency
system.l2.ReadSharedReq_avg_mshr_miss_latency::total 70951.183998                       # average ReadSharedReq mshr miss latency
system.l2.InvalidateReq_misses::.cpu.data            6                       # number of InvalidateReq misses
system.l2.InvalidateReq_misses::total               6                       # number of InvalidateReq misses
system.l2.InvalidateReq_accesses::.cpu.data            6                       # number of InvalidateReq accesses(hits+misses)
system.l2.InvalidateReq_accesses::total             6                       # number of InvalidateReq accesses(hits+misses)
system.l2.InvalidateReq_miss_rate::.cpu.data            1                       # miss rate for InvalidateReq accesses
system.l2.InvalidateReq_miss_rate::total            1                       # miss rate for InvalidateReq accesses
system.l2.InvalidateReq_mshr_misses::.cpu.data            6                       # number of InvalidateReq MSHR misses
system.l2.InvalidateReq_mshr_misses::total            6                       # number of InvalidateReq MSHR misses
system.l2.InvalidateReq_mshr_miss_latency::.cpu.data       113000                       # number of InvalidateReq MSHR miss cycles
system.l2.InvalidateReq_mshr_miss_latency::total       113000                       # number of InvalidateReq MSHR miss cycles
system.l2.InvalidateReq_mshr_miss_rate::.cpu.data            1                       # mshr miss rate for InvalidateReq accesses
system.l2.InvalidateReq_mshr_miss_rate::total            1                       # mshr miss rate for InvalidateReq accesses
system.l2.InvalidateReq_avg_mshr_miss_latency::.cpu.data 18833.333333                       # average InvalidateReq mshr miss latency
system.l2.InvalidateReq_avg_mshr_miss_latency::total 18833.333333                       # average InvalidateReq mshr miss latency
system.l2.prefetcher.pwrStateResidencyTicks::UNDEFINED 147288603500                       # Cumulative time (in ticks) in various power states
system.l2.tags.pwrStateResidencyTicks::UNDEFINED 147288603500                       # Cumulative time (in ticks) in various power states
system.l2.tags.tagsinuse                  8826.626119                       # Cycle average of tags in use
system.l2.tags.total_refs                    33286527                       # Total number of references to valid blocks.
system.l2.tags.sampled_refs                     13065                       # Sample count of references to valid blocks.
system.l2.tags.avg_refs                   2547.763261                       # Average number of references to valid blocks.
system.l2.tags.warmup_cycle                     77000                       # Cycle when the warmup percentage was hit.
system.l2.tags.occ_blocks::.writebacks       5.981636                       # Average occupied blocks per requestor
system.l2.tags.occ_blocks::.cpu.inst       351.806212                       # Average occupied blocks per requestor
system.l2.tags.occ_blocks::.cpu.data      2558.500828                       # Average occupied blocks per requestor
system.l2.tags.occ_blocks::.cpu.dcache.prefetcher  4918.434146                       # Average occupied blocks per requestor
system.l2.tags.occ_blocks::.l2.prefetcher   991.903298                       # Average occupied blocks per requestor
system.l2.tags.occ_percent::.writebacks      0.000365                       # Average percentage of cache occupancy
system.l2.tags.occ_percent::.cpu.inst        0.021473                       # Average percentage of cache occupancy
system.l2.tags.occ_percent::.cpu.data        0.156158                       # Average percentage of cache occupancy
system.l2.tags.occ_percent::.cpu.dcache.prefetcher     0.300197                       # Average percentage of cache occupancy
system.l2.tags.occ_percent::.l2.prefetcher     0.060541                       # Average percentage of cache occupancy
system.l2.tags.occ_percent::total            0.538735                       # Average percentage of cache occupancy
system.l2.tags.occ_task_id_blocks::1022          9638                       # Occupied blocks per task id
system.l2.tags.occ_task_id_blocks::1024          3419                       # Occupied blocks per task id
system.l2.tags.age_task_id_blocks_1022::1            3                       # Occupied blocks per task id
system.l2.tags.age_task_id_blocks_1022::2           38                       # Occupied blocks per task id
system.l2.tags.age_task_id_blocks_1022::3          468                       # Occupied blocks per task id
system.l2.tags.age_task_id_blocks_1022::4         9129                       # Occupied blocks per task id
system.l2.tags.age_task_id_blocks_1024::0          126                       # Occupied blocks per task id
system.l2.tags.age_task_id_blocks_1024::1           56                       # Occupied blocks per task id
system.l2.tags.age_task_id_blocks_1024::2            2                       # Occupied blocks per task id
system.l2.tags.age_task_id_blocks_1024::3           35                       # Occupied blocks per task id
system.l2.tags.age_task_id_blocks_1024::4         3200                       # Occupied blocks per task id
system.l2.tags.occ_task_id_percent::1022     0.588257                       # Percentage of cache occupancy per task id
system.l2.tags.occ_task_id_percent::1024     0.208679                       # Percentage of cache occupancy per task id
system.l2.tags.tag_accesses                 266289553                       # Number of tag accesses
system.l2.tags.data_accesses                266289553                       # Number of data accesses
system.cpu_voltage_domain.voltage                   1                       # Voltage in Volts
system.mem_ctrls.pwrStateResidencyTicks::UNDEFINED 147288603500                       # Cumulative time (in ticks) in various power states
system.mem_ctrls.bytes_read::.cpu.inst          31552                       # Number of bytes read from this memory
system.mem_ctrls.bytes_read::.cpu.data         187264                       # Number of bytes read from this memory
system.mem_ctrls.bytes_read::.cpu.dcache.prefetcher       490688                       # Number of bytes read from this memory
system.mem_ctrls.bytes_read::.l2.prefetcher       126208                       # Number of bytes read from this memory
system.mem_ctrls.bytes_read::total             835712                       # Number of bytes read from this memory
system.mem_ctrls.bytes_inst_read::.cpu.inst        31552                       # Number of instructions bytes read from this memory
system.mem_ctrls.bytes_inst_read::total         31552                       # Number of instructions bytes read from this memory
system.mem_ctrls.num_reads::.cpu.inst             493                       # Number of read requests responded to by this memory
system.mem_ctrls.num_reads::.cpu.data            2926                       # Number of read requests responded to by this memory
system.mem_ctrls.num_reads::.cpu.dcache.prefetcher         7667                       # Number of read requests responded to by this memory
system.mem_ctrls.num_reads::.l2.prefetcher         1972                       # Number of read requests responded to by this memory
system.mem_ctrls.num_reads::total               13058                       # Number of read requests responded to by this memory
system.mem_ctrls.bw_read::.cpu.inst            214219                       # Total read bandwidth from this memory (bytes/s)
system.mem_ctrls.bw_read::.cpu.data           1271409                       # Total read bandwidth from this memory (bytes/s)
system.mem_ctrls.bw_read::.cpu.dcache.prefetcher      3331473                       # Total read bandwidth from this memory (bytes/s)
system.mem_ctrls.bw_read::.l2.prefetcher       856876                       # Total read bandwidth from this memory (bytes/s)
system.mem_ctrls.bw_read::total               5673976                       # Total read bandwidth from this memory (bytes/s)
system.mem_ctrls.bw_inst_read::.cpu.inst       214219                       # Instruction read bandwidth from this memory (bytes/s)
system.mem_ctrls.bw_inst_read::total           214219                       # Instruction read bandwidth from this memory (bytes/s)
system.mem_ctrls.bw_total::.cpu.inst           214219                       # Total bandwidth to/from this memory (bytes/s)
system.mem_ctrls.bw_total::.cpu.data          1271409                       # Total bandwidth to/from this memory (bytes/s)
system.mem_ctrls.bw_total::.cpu.dcache.prefetcher      3331473                       # Total bandwidth to/from this memory (bytes/s)
system.mem_ctrls.bw_total::.l2.prefetcher       856876                       # Total bandwidth to/from this memory (bytes/s)
system.mem_ctrls.bw_total::total              5673976                       # Total bandwidth to/from this memory (bytes/s)
system.mem_ctrls.avgPriority_.cpu.inst::samples       493.00                       # Average QoS priority value for accepted requests
system.mem_ctrls.avgPriority_.cpu.data::samples      2926.00                       # Average QoS priority value for accepted requests
system.mem_ctrls.avgPriority_.cpu.dcache.prefetcher::samples      7667.00                       # Average QoS priority value for accepted requests
system.mem_ctrls.avgPriority_.l2.prefetcher::samples      1972.00                       # Average QoS priority value for accepted requests
system.mem_ctrls.priorityMinLatency      0.000000018750                       # per QoS priority minimum request to response latency (s)
system.mem_ctrls.priorityMaxLatency      0.000000674500                       # per QoS priority maximum request to response latency (s)
system.mem_ctrls.numReadWriteTurnArounds            0                       # Number of turnarounds from READ to WRITE
system.mem_ctrls.numWriteReadTurnArounds            0                       # Number of turnarounds from WRITE to READ
system.mem_ctrls.numStayReadState               63853                       # Number of times bus staying in READ state
system.mem_ctrls.numStayWriteState                  0                       # Number of times bus staying in WRITE state
system.mem_ctrls.readReqs                       13058                       # Number of read requests accepted
system.mem_ctrls.writeReqs                          0                       # Number of write requests accepted
system.mem_ctrls.readBursts                     13058                       # Number of DRAM read bursts, including those serviced by the write queue
system.mem_ctrls.writeBursts                        0                       # Number of DRAM write bursts, including those merged in the write queue
system.mem_ctrls.servicedByWrQ                      0                       # Number of DRAM read bursts serviced by the write queue
system.mem_ctrls.mergedWrBursts                     0                       # Number of DRAM write bursts merged with an existing one
system.mem_ctrls.neitherReadNorWriteReqs            0                       # Number of requests that are neither read nor write
system.mem_ctrls.perBankRdBursts::0               868                       # Per bank write bursts
system.mem_ctrls.perBankRdBursts::1               854                       # Per bank write bursts
system.mem_ctrls.perBankRdBursts::2               829                       # Per bank write bursts
system.mem_ctrls.perBankRdBursts::3               790                       # Per bank write bursts
system.mem_ctrls.perBankRdBursts::4               784                       # Per bank write bursts
system.mem_ctrls.perBankRdBursts::5               768                       # Per bank write bursts
system.mem_ctrls.perBankRdBursts::6               777                       # Per bank write bursts
system.mem_ctrls.perBankRdBursts::7               780                       # Per bank write bursts
system.mem_ctrls.perBankRdBursts::8               808                       # Per bank write bursts
system.mem_ctrls.perBankRdBursts::9               815                       # Per bank write bursts
system.mem_ctrls.perBankRdBursts::10              790                       # Per bank write bursts
system.mem_ctrls.perBankRdBursts::11              826                       # Per bank write bursts
system.mem_ctrls.perBankRdBursts::12              795                       # Per bank write bursts
system.mem_ctrls.perBankRdBursts::13              909                       # Per bank write bursts
system.mem_ctrls.perBankRdBursts::14              816                       # Per bank write bursts
system.mem_ctrls.perBankRdBursts::15              849                       # Per bank write bursts
system.mem_ctrls.perBankWrBursts::0                 0                       # Per bank write bursts
system.mem_ctrls.perBankWrBursts::1                 0                       # Per bank write bursts
system.mem_ctrls.perBankWrBursts::2                 0                       # Per bank write bursts
system.mem_ctrls.perBankWrBursts::3                 0                       # Per bank write bursts
system.mem_ctrls.perBankWrBursts::4                 0                       # Per bank write bursts
system.mem_ctrls.perBankWrBursts::5                 0                       # Per bank write bursts
system.mem_ctrls.perBankWrBursts::6                 0                       # Per bank write bursts
system.mem_ctrls.perBankWrBursts::7                 0                       # Per bank write bursts
system.mem_ctrls.perBankWrBursts::8                 0                       # Per bank write bursts
system.mem_ctrls.perBankWrBursts::9                 0                       # Per bank write bursts
system.mem_ctrls.perBankWrBursts::10                0                       # Per bank write bursts
system.mem_ctrls.perBankWrBursts::11                0                       # Per bank write bursts
system.mem_ctrls.perBankWrBursts::12                0                       # Per bank write bursts
system.mem_ctrls.perBankWrBursts::13                0                       # Per bank write bursts
system.mem_ctrls.perBankWrBursts::14                0                       # Per bank write bursts
system.mem_ctrls.perBankWrBursts::15                0                       # Per bank write bursts
system.mem_ctrls.avgRdQLen                       2.86                       # Average read queue length when enqueuing
system.mem_ctrls.avgWrQLen                       0.00                       # Average write queue length when enqueuing
system.mem_ctrls.totQLat                    155586075                       # Total ticks spent queuing
system.mem_ctrls.totBusLat                   65290000                       # Total ticks spent in databus transfers
system.mem_ctrls.totMemAccLat               400423575                       # Total ticks spent from burst creation until serviced by the DRAM
system.mem_ctrls.avgQLat                     11915.00                       # Average queueing delay per DRAM burst
system.mem_ctrls.avgBusLat                    5000.00                       # Average bus latency per DRAM burst
system.mem_ctrls.avgMemAccLat                30665.00                       # Average memory access latency per DRAM burst
system.mem_ctrls.numRdRetry                         0                       # Number of times read queue was full causing retry
system.mem_ctrls.numWrRetry                         0                       # Number of times write queue was full causing retry
system.mem_ctrls.readRowHits                     9457                       # Number of row buffer hits during reads
system.mem_ctrls.writeRowHits                       0                       # Number of row buffer hits during writes
system.mem_ctrls.readRowHitRate                 72.42                       # Row buffer hit rate for reads
system.mem_ctrls.writeRowHitRate                  nan                       # Row buffer hit rate for writes
system.mem_ctrls.readPktSize::0                     0                       # Read request sizes (log2)
system.mem_ctrls.readPktSize::1                     0                       # Read request sizes (log2)
system.mem_ctrls.readPktSize::2                     0                       # Read request sizes (log2)
system.mem_ctrls.readPktSize::3                     0                       # Read request sizes (log2)
system.mem_ctrls.readPktSize::4                     0                       # Read request sizes (log2)
system.mem_ctrls.readPktSize::5                     0                       # Read request sizes (log2)
system.mem_ctrls.readPktSize::6                 13058                       # Read request sizes (log2)
system.mem_ctrls.writePktSize::0                    0                       # Write request sizes (log2)
system.mem_ctrls.writePktSize::1                    0                       # Write request sizes (log2)
system.mem_ctrls.writePktSize::2                    0                       # Write request sizes (log2)
system.mem_ctrls.writePktSize::3                    0                       # Write request sizes (log2)
system.mem_ctrls.writePktSize::4                    0                       # Write request sizes (log2)
system.mem_ctrls.writePktSize::5                    0                       # Write request sizes (log2)
system.mem_ctrls.writePktSize::6                    0                       # Write request sizes (log2)
system.mem_ctrls.rdQLenPdf::0                    7623                       # What read queue length does an incoming req see
system.mem_ctrls.rdQLenPdf::1                    3949                       # What read queue length does an incoming req see
system.mem_ctrls.rdQLenPdf::2                     530                       # What read queue length does an incoming req see
system.mem_ctrls.rdQLenPdf::3                     507                       # What read queue length does an incoming req see
system.mem_ctrls.rdQLenPdf::4                     445                       # What read queue length does an incoming req see
system.mem_ctrls.rdQLenPdf::5                       2                       # What read queue length does an incoming req see
system.mem_ctrls.rdQLenPdf::6                       2                       # What read queue length does an incoming req see
system.mem_ctrls.rdQLenPdf::7                       0                       # What read queue length does an incoming req see
system.mem_ctrls.rdQLenPdf::8                       0                       # What read queue length does an incoming req see
system.mem_ctrls.rdQLenPdf::9                       0                       # What read queue length does an incoming req see
system.mem_ctrls.rdQLenPdf::10                      0                       # What read queue length does an incoming req see
system.mem_ctrls.rdQLenPdf::11                      0                       # What read queue length does an incoming req see
system.mem_ctrls.rdQLenPdf::12                      0                       # What read queue length does an incoming req see
system.mem_ctrls.rdQLenPdf::13                      0                       # What read queue length does an incoming req see
system.mem_ctrls.rdQLenPdf::14                      0                       # What read queue length does an incoming req see
system.mem_ctrls.rdQLenPdf::15                      0                       # What read queue length does an incoming req see
system.mem_ctrls.rdQLenPdf::16                      0                       # What read queue length does an incoming req see
system.mem_ctrls.rdQLenPdf::17                      0                       # What read queue length does an incoming req see
system.mem_ctrls.rdQLenPdf::18                      0                       # What read queue length does an incoming req see
system.mem_ctrls.rdQLenPdf::19                      0                       # What read queue length does an incoming req see
system.mem_ctrls.rdQLenPdf::20                      0                       # What read queue length does an incoming req see
system.mem_ctrls.rdQLenPdf::21                      0                       # What read queue length does an incoming req see
system.mem_ctrls.rdQLenPdf::22                      0                       # What read queue length does an incoming req see
system.mem_ctrls.rdQLenPdf::23                      0                       # What read queue length does an incoming req see
system.mem_ctrls.rdQLenPdf::24                      0                       # What read queue length does an incoming req see
system.mem_ctrls.rdQLenPdf::25                      0                       # What read queue length does an incoming req see
system.mem_ctrls.rdQLenPdf::26                      0                       # What read queue length does an incoming req see
system.mem_ctrls.rdQLenPdf::27                      0                       # What read queue length does an incoming req see
system.mem_ctrls.rdQLenPdf::28                      0                       # What read queue length does an incoming req see
system.mem_ctrls.rdQLenPdf::29                      0                       # What read queue length does an incoming req see
system.mem_ctrls.rdQLenPdf::30                      0                       # What read queue length does an incoming req see
system.mem_ctrls.rdQLenPdf::31                      0                       # What read queue length does an incoming req see
system.mem_ctrls.wrQLenPdf::0                       0                       # What write queue length does an incoming req see
system.mem_ctrls.wrQLenPdf::1                       0                       # What write queue length does an incoming req see
system.mem_ctrls.wrQLenPdf::2                       0                       # What write queue length does an incoming req see
system.mem_ctrls.wrQLenPdf::3                       0                       # What write queue length does an incoming req see
system.mem_ctrls.wrQLenPdf::4                       0                       # What write queue length does an incoming req see
system.mem_ctrls.wrQLenPdf::5                       0                       # What write queue length does an incoming req see
system.mem_ctrls.wrQLenPdf::6                       0                       # What write queue length does an incoming req see
system.mem_ctrls.wrQLenPdf::7                       0                       # What write queue length does an incoming req see
system.mem_ctrls.wrQLenPdf::8                       0                       # What write queue length does an incoming req see
system.mem_ctrls.wrQLenPdf::9                       0                       # What write queue length does an incoming req see
system.mem_ctrls.wrQLenPdf::10                      0                       # What write queue length does an incoming req see
system.mem_ctrls.wrQLenPdf::11                      0                       # What write queue length does an incoming req see
system.mem_ctrls.wrQLenPdf::12                      0                       # What write queue length does an incoming req see
system.mem_ctrls.wrQLenPdf::13                      0                       # What write queue length does an incoming req see
system.mem_ctrls.wrQLenPdf::14                      0                       # What write queue length does an incoming req see
[...]
system.cpu.dcache.demand_mshr_misses::total      8355774                       # number of demand (read+write) MSHR misses
system.cpu.dcache.overall_mshr_misses::.cpu.data      8355774                       # number of overall MSHR misses
system.cpu.dcache.overall_mshr_misses::.cpu.dcache.prefetcher      8287177                       # number of overall MSHR misses
system.cpu.dcache.overall_mshr_misses::total     16642951                       # number of overall MSHR misses
system.cpu.dcache.demand_mshr_miss_latency::.cpu.data 108713183000                       # number of demand (read+write) MSHR miss cycles
system.cpu.dcache.demand_mshr_miss_latency::total 108713183000                       # number of demand (read+write) MSHR miss cycles
system.cpu.dcache.overall_mshr_miss_latency::.cpu.data 108713183000                       # number of overall MSHR miss cycles
system.cpu.dcache.overall_mshr_miss_latency::.cpu.dcache.prefetcher  92075623286                       # number of overall MSHR miss cycles
system.cpu.dcache.overall_mshr_miss_latency::total 200788806286                       # number of overall MSHR miss cycles
system.cpu.dcache.demand_mshr_miss_rate::.cpu.data     0.247070                       # mshr miss rate for demand accesses
system.cpu.dcache.demand_mshr_miss_rate::total     0.247070                       # mshr miss rate for demand accesses
system.cpu.dcache.overall_mshr_miss_rate::.cpu.data     0.247070                       # mshr miss rate for overall accesses
system.cpu.dcache.overall_mshr_miss_rate::.cpu.dcache.prefetcher          inf                       # mshr miss rate for overall accesses
system.cpu.dcache.overall_mshr_miss_rate::total     0.492111                       # mshr miss rate for overall accesses
system.cpu.dcache.demand_avg_mshr_miss_latency::.cpu.data 13010.546121                       # average overall mshr miss latency
system.cpu.dcache.demand_avg_mshr_miss_latency::total 13010.546121                       # average overall mshr miss latency
system.cpu.dcache.overall_avg_mshr_miss_latency::.cpu.data 13010.546121                       # average overall mshr miss latency
system.cpu.dcache.overall_avg_mshr_miss_latency::.cpu.dcache.prefetcher 11110.613818                       # average overall mshr miss latency
system.cpu.dcache.overall_avg_mshr_miss_latency::total 12064.495430                       # average overall mshr miss latency
system.cpu.dcache.replacements               16640906                       # number of replacements
system.cpu.dcache.ReadReq_hits::.cpu.data     25224854                       # number of ReadReq hits
system.cpu.dcache.ReadReq_hits::total        25224854                       # number of ReadReq hits
system.cpu.dcache.ReadReq_misses::.cpu.data      8527623                       # number of ReadReq misses
system.cpu.dcache.ReadReq_misses::total       8527623                       # number of ReadReq misses
system.cpu.dcache.ReadReq_miss_latency::.cpu.data 118488764500                       # number of ReadReq miss cycles
system.cpu.dcache.ReadReq_miss_latency::total 118488764500                       # number of ReadReq miss cycles
system.cpu.dcache.ReadReq_accesses::.cpu.data     33752477                       # number of ReadReq accesses(hits+misses)
system.cpu.dcache.ReadReq_accesses::total     33752477                       # number of ReadReq accesses(hits+misses)
system.cpu.dcache.ReadReq_miss_rate::.cpu.data     0.252652                       # miss rate for ReadReq accesses
system.cpu.dcache.ReadReq_miss_rate::total     0.252652                       # miss rate for ReadReq accesses
system.cpu.dcache.ReadReq_avg_miss_latency::.cpu.data 13894.700141                       # average ReadReq miss latency
system.cpu.dcache.ReadReq_avg_miss_latency::total 13894.700141                       # average ReadReq miss latency
system.cpu.dcache.ReadReq_mshr_hits::.cpu.data       237244                       # number of ReadReq MSHR hits
system.cpu.dcache.ReadReq_mshr_hits::total       237244                       # number of ReadReq MSHR hits
system.cpu.dcache.ReadReq_mshr_misses::.cpu.data      8290379                       # number of ReadReq MSHR misses
system.cpu.dcache.ReadReq_mshr_misses::total      8290379                       # number of ReadReq MSHR misses
system.cpu.dcache.ReadReq_mshr_miss_latency::.cpu.data 107922281000                       # number of ReadReq MSHR miss cycles
system.cpu.dcache.ReadReq_mshr_miss_latency::total 107922281000                       # number of ReadReq MSHR miss cycles
system.cpu.dcache.ReadReq_mshr_miss_rate::.cpu.data     0.245623                       # mshr miss rate for ReadReq accesses
system.cpu.dcache.ReadReq_mshr_miss_rate::total     0.245623                       # mshr miss rate for ReadReq accesses
system.cpu.dcache.ReadReq_avg_mshr_miss_latency::.cpu.data 13017.774097                       # average ReadReq mshr miss latency
system.cpu.dcache.ReadReq_avg_mshr_miss_latency::total 13017.774097                       # average ReadReq mshr miss latency
system.cpu.dcache.WriteReq_hits::.cpu.data         1534                       # number of WriteReq hits
system.cpu.dcache.WriteReq_hits::total           1534                       # number of WriteReq hits
system.cpu.dcache.WriteReq_misses::.cpu.data        65470                       # number of WriteReq misses
system.cpu.dcache.WriteReq_misses::total        65470                       # number of WriteReq misses
system.cpu.dcache.WriteReq_miss_latency::.cpu.data    861162500                       # number of WriteReq miss cycles
system.cpu.dcache.WriteReq_miss_latency::total    861162500                       # number of WriteReq miss cycles
system.cpu.dcache.WriteReq_accesses::.cpu.data        67004                       # number of WriteReq accesses(hits+misses)
system.cpu.dcache.WriteReq_accesses::total        67004                       # number of WriteReq accesses(hits+misses)
system.cpu.dcache.WriteReq_miss_rate::.cpu.data     0.977106                       # miss rate for WriteReq accesses
system.cpu.dcache.WriteReq_miss_rate::total     0.977106                       # miss rate for WriteReq accesses
system.cpu.dcache.WriteReq_avg_miss_latency::.cpu.data 13153.543608                       # average WriteReq miss latency
system.cpu.dcache.WriteReq_avg_miss_latency::total 13153.543608                       # average WriteReq miss latency
system.cpu.dcache.WriteReq_mshr_hits::.cpu.data           81                       # number of WriteReq MSHR hits
system.cpu.dcache.WriteReq_mshr_hits::total           81                       # number of WriteReq MSHR hits
system.cpu.dcache.WriteReq_mshr_misses::.cpu.data        65389                       # number of WriteReq MSHR misses
system.cpu.dcache.WriteReq_mshr_misses::total        65389                       # number of WriteReq MSHR misses
system.cpu.dcache.WriteReq_mshr_miss_latency::.cpu.data    790720000                       # number of WriteReq MSHR miss cycles
system.cpu.dcache.WriteReq_mshr_miss_latency::total    790720000                       # number of WriteReq MSHR miss cycles
system.cpu.dcache.WriteReq_mshr_miss_rate::.cpu.data     0.975897                       # mshr miss rate for WriteReq accesses
system.cpu.dcache.WriteReq_mshr_miss_rate::total     0.975897                       # mshr miss rate for WriteReq accesses
system.cpu.dcache.WriteReq_avg_mshr_miss_latency::.cpu.data 12092.553793                       # average WriteReq mshr miss latency
system.cpu.dcache.WriteReq_avg_mshr_miss_latency::total 12092.553793                       # average WriteReq mshr miss latency
system.cpu.dcache.HardPFReq_mshr_misses::.cpu.dcache.prefetcher      8287177                       # number of HardPFReq MSHR misses
system.cpu.dcache.HardPFReq_mshr_misses::total      8287177                       # number of HardPFReq MSHR misses
system.cpu.dcache.HardPFReq_mshr_miss_latency::.cpu.dcache.prefetcher  92075623286                       # number of HardPFReq MSHR miss cycles
system.cpu.dcache.HardPFReq_mshr_miss_latency::total  92075623286                       # number of HardPFReq MSHR miss cycles
system.cpu.dcache.HardPFReq_mshr_miss_rate::.cpu.dcache.prefetcher          inf                       # mshr miss rate for HardPFReq accesses
system.cpu.dcache.HardPFReq_mshr_miss_rate::total          inf                       # mshr miss rate for HardPFReq accesses
system.cpu.dcache.HardPFReq_avg_mshr_miss_latency::.cpu.dcache.prefetcher 11110.613818                       # average HardPFReq mshr miss latency
system.cpu.dcache.HardPFReq_avg_mshr_miss_latency::total 11110.613818                       # average HardPFReq mshr miss latency
system.cpu.dcache.WriteLineReq_misses::.cpu.data            7                       # number of WriteLineReq misses
system.cpu.dcache.WriteLineReq_misses::total            7                       # number of WriteLineReq misses
system.cpu.dcache.WriteLineReq_miss_latency::.cpu.data       259000                       # number of WriteLineReq miss cycles
system.cpu.dcache.WriteLineReq_miss_latency::total       259000                       # number of WriteLineReq miss cycles
system.cpu.dcache.WriteLineReq_accesses::.cpu.data            7                       # number of WriteLineReq accesses(hits+misses)
system.cpu.dcache.WriteLineReq_accesses::total            7                       # number of WriteLineReq accesses(hits+misses)
system.cpu.dcache.WriteLineReq_miss_rate::.cpu.data            1                       # miss rate for WriteLineReq accesses
system.cpu.dcache.WriteLineReq_miss_rate::total            1                       # miss rate for WriteLineReq accesses
system.cpu.dcache.WriteLineReq_avg_miss_latency::.cpu.data        37000                       # average WriteLineReq miss latency
system.cpu.dcache.WriteLineReq_avg_miss_latency::total        37000                       # average WriteLineReq miss latency
system.cpu.dcache.WriteLineReq_mshr_hits::.cpu.data            1                       # number of WriteLineReq MSHR hits
system.cpu.dcache.WriteLineReq_mshr_hits::total            1                       # number of WriteLineReq MSHR hits
system.cpu.dcache.WriteLineReq_mshr_misses::.cpu.data            6                       # number of WriteLineReq MSHR misses
system.cpu.dcache.WriteLineReq_mshr_misses::total            6                       # number of WriteLineReq MSHR misses
system.cpu.dcache.WriteLineReq_mshr_miss_latency::.cpu.data       182000                       # number of WriteLineReq MSHR miss cycles
system.cpu.dcache.WriteLineReq_mshr_miss_latency::total       182000                       # number of WriteLineReq MSHR miss cycles
system.cpu.dcache.WriteLineReq_mshr_miss_rate::.cpu.data     0.857143                       # mshr miss rate for WriteLineReq accesses
system.cpu.dcache.WriteLineReq_mshr_miss_rate::total     0.857143                       # mshr miss rate for WriteLineReq accesses
system.cpu.dcache.WriteLineReq_avg_mshr_miss_latency::.cpu.data 30333.333333                       # average WriteLineReq mshr miss latency
system.cpu.dcache.WriteLineReq_avg_mshr_miss_latency::total 30333.333333                       # average WriteLineReq mshr miss latency
system.cpu.dcache.LoadLockedReq_hits::.cpu.data            3                       # number of LoadLockedReq hits
system.cpu.dcache.LoadLockedReq_hits::total            3                       # number of LoadLockedReq hits
system.cpu.dcache.LoadLockedReq_misses::.cpu.data            1                       # number of LoadLockedReq misses
system.cpu.dcache.LoadLockedReq_misses::total            1                       # number of LoadLockedReq misses
system.cpu.dcache.LoadLockedReq_miss_latency::.cpu.data        72000                       # number of LoadLockedReq miss cycles
system.cpu.dcache.LoadLockedReq_miss_latency::total        72000                       # number of LoadLockedReq miss cycles
system.cpu.dcache.LoadLockedReq_accesses::.cpu.data            4                       # number of LoadLockedReq accesses(hits+misses)
system.cpu.dcache.LoadLockedReq_accesses::total            4                       # number of LoadLockedReq accesses(hits+misses)
system.cpu.dcache.LoadLockedReq_miss_rate::.cpu.data     0.250000                       # miss rate for LoadLockedReq accesses
system.cpu.dcache.LoadLockedReq_miss_rate::total     0.250000                       # miss rate for LoadLockedReq accesses
system.cpu.dcache.LoadLockedReq_avg_miss_latency::.cpu.data        72000                       # average LoadLockedReq miss latency
system.cpu.dcache.LoadLockedReq_avg_miss_latency::total        72000                       # average LoadLockedReq miss latency
system.cpu.dcache.LoadLockedReq_mshr_misses::.cpu.data            1                       # number of LoadLockedReq MSHR misses
system.cpu.dcache.LoadLockedReq_mshr_misses::total            1                       # number of LoadLockedReq MSHR misses
system.cpu.dcache.LoadLockedReq_mshr_miss_latency::.cpu.data        71000                       # number of LoadLockedReq MSHR miss cycles
system.cpu.dcache.LoadLockedReq_mshr_miss_latency::total        71000                       # number of LoadLockedReq MSHR miss cycles
system.cpu.dcache.LoadLockedReq_mshr_miss_rate::.cpu.data     0.250000                       # mshr miss rate for LoadLockedReq accesses
system.cpu.dcache.LoadLockedReq_mshr_miss_rate::total     0.250000                       # mshr miss rate for LoadLockedReq accesses
system.cpu.dcache.LoadLockedReq_avg_mshr_miss_latency::.cpu.data        71000                       # average LoadLockedReq mshr miss latency
system.cpu.dcache.LoadLockedReq_avg_mshr_miss_latency::total        71000                       # average LoadLockedReq mshr miss latency
system.cpu.dcache.StoreCondReq_hits::.cpu.data            4                       # number of StoreCondReq hits
system.cpu.dcache.StoreCondReq_hits::total            4                       # number of StoreCondReq hits
system.cpu.dcache.StoreCondReq_accesses::.cpu.data            4                       # number of StoreCondReq accesses(hits+misses)
system.cpu.dcache.StoreCondReq_accesses::total            4                       # number of StoreCondReq accesses(hits+misses)
system.cpu.dcache.SwapReq_hits::.cpu.data           24                       # number of SwapReq hits
system.cpu.dcache.SwapReq_hits::total              24                       # number of SwapReq hits
system.cpu.dcache.SwapReq_misses::.cpu.data            2                       # number of SwapReq misses
system.cpu.dcache.SwapReq_misses::total             2                       # number of SwapReq misses
system.cpu.dcache.SwapReq_miss_latency::.cpu.data       296500                       # number of SwapReq miss cycles
system.cpu.dcache.SwapReq_miss_latency::total       296500                       # number of SwapReq miss cycles
system.cpu.dcache.SwapReq_accesses::.cpu.data           26                       # number of SwapReq accesses(hits+misses)
system.cpu.dcache.SwapReq_accesses::total           26                       # number of SwapReq accesses(hits+misses)
system.cpu.dcache.SwapReq_miss_rate::.cpu.data     0.076923                       # miss rate for SwapReq accesses
system.cpu.dcache.SwapReq_miss_rate::total     0.076923                       # miss rate for SwapReq accesses
system.cpu.dcache.SwapReq_avg_miss_latency::.cpu.data       148250                       # average SwapReq miss latency
system.cpu.dcache.SwapReq_avg_miss_latency::total       148250                       # average SwapReq miss latency
system.cpu.dcache.SwapReq_mshr_misses::.cpu.data            2                       # number of SwapReq MSHR misses
system.cpu.dcache.SwapReq_mshr_misses::total            2                       # number of SwapReq MSHR misses
system.cpu.dcache.SwapReq_mshr_miss_latency::.cpu.data       294500                       # number of SwapReq MSHR miss cycles
system.cpu.dcache.SwapReq_mshr_miss_latency::total       294500                       # number of SwapReq MSHR miss cycles
system.cpu.dcache.SwapReq_mshr_miss_rate::.cpu.data     0.076923                       # mshr miss rate for SwapReq accesses
system.cpu.dcache.SwapReq_mshr_miss_rate::total     0.076923                       # mshr miss rate for SwapReq accesses
system.cpu.dcache.SwapReq_avg_mshr_miss_latency::.cpu.data       147250                       # average SwapReq mshr miss latency
system.cpu.dcache.SwapReq_avg_mshr_miss_latency::total       147250                       # average SwapReq mshr miss latency
system.cpu.dcache.prefetcher.pwrStateResidencyTicks::UNDEFINED 147288603500                       # Cumulative time (in ticks) in various power states
system.cpu.dcache.tags.pwrStateResidencyTicks::UNDEFINED 147288603500                       # Cumulative time (in ticks) in various power states
system.cpu.dcache.tags.tagsinuse          2043.693764                       # Cycle average of tags in use
system.cpu.dcache.tags.total_refs            41869373                       # Total number of references to valid blocks.
system.cpu.dcache.tags.sampled_refs          16642954                       # Sample count of references to valid blocks.
system.cpu.dcache.tags.avg_refs              2.515742                       # Average number of references to valid blocks.
system.cpu.dcache.tags.warmup_cycle            176500                       # Cycle when the warmup percentage was hit.
system.cpu.dcache.tags.occ_blocks::.cpu.data   984.697172                       # Average occupied blocks per requestor
system.cpu.dcache.tags.occ_blocks::.cpu.dcache.prefetcher  1058.996592                       # Average occupied blocks per requestor
system.cpu.dcache.tags.occ_percent::.cpu.data     0.480809                       # Average percentage of cache occupancy
system.cpu.dcache.tags.occ_percent::.cpu.dcache.prefetcher     0.517088                       # Average percentage of cache occupancy
system.cpu.dcache.tags.occ_percent::total     0.997897                       # Average percentage of cache occupancy
system.cpu.dcache.tags.occ_task_id_blocks::1022         1025                       # Occupied blocks per task id
system.cpu.dcache.tags.occ_task_id_blocks::1024         1023                       # Occupied blocks per task id
system.cpu.dcache.tags.age_task_id_blocks_1022::1          119                       # Occupied blocks per task id
system.cpu.dcache.tags.age_task_id_blocks_1022::2          334                       # Occupied blocks per task id
system.cpu.dcache.tags.age_task_id_blocks_1022::4          572                       # Occupied blocks per task id
system.cpu.dcache.tags.age_task_id_blocks_1024::0           46                       # Occupied blocks per task id
system.cpu.dcache.tags.age_task_id_blocks_1024::1          154                       # Occupied blocks per task id
system.cpu.dcache.tags.age_task_id_blocks_1024::2          371                       # Occupied blocks per task id
system.cpu.dcache.tags.age_task_id_blocks_1024::4          452                       # Occupied blocks per task id
system.cpu.dcache.tags.occ_task_id_percent::1022     0.500488                       # Percentage of cache occupancy per task id
system.cpu.dcache.tags.occ_task_id_percent::1024     0.499512                       # Percentage of cache occupancy per task id
system.cpu.dcache.tags.tag_accesses          84281998                       # Number of tag accesses
system.cpu.dcache.tags.data_accesses         84281998                       # Number of data accesses
system.cpu.itb.walker.pwrStateResidencyTicks::UNDEFINED 147288603500                       # Cumulative time (in ticks) in various power states
system.cpu.itb.stage2_mmu.stage2_tlb.walker.pwrStateResidencyTicks::UNDEFINED 147288603500                       # Cumulative time (in ticks) in various power states

---------- End Simulation Statistics   ----------
