
---------- Begin Simulation Statistics ----------
final_tick                                59352249500                       # Number of ticks from beginning of simulation (restored from checkpoints and never reset)
host_inst_rate                                 381368                       # Simulator instruction rate (inst/s)
host_mem_usage                                8498452                       # Number of bytes of host memory used
host_op_rate                                   444436                       # Simulator op (including micro ops) rate (op/s)
host_seconds                                   266.04                       # Real time elapsed on the host
host_tick_rate                              223093999                       # Simulator tick rate (ticks/s)
sim_freq                                 1000000000000                       # Frequency of simulated ticks
sim_insts                                   101459739                       # Number of instructions simulated
sim_ops                                     118238466                       # Number of ops (including micro ops) simulated
sim_seconds                                  0.059352                       # Number of seconds simulated
sim_ticks                                 59352249500                       # Number of ticks simulated
system.cpu.branchPred.BTBCorrect                    0                       # Number of correct BTB predictions (this stat may not work properly.
system.cpu.branchPred.BTBHitPct             99.997246                       # BTB Hit Percentage
system.cpu.branchPred.BTBHits                17207956                       # Number of BTB hits
system.cpu.branchPred.BTBLookups             17208430                       # Number of BTB lookups
system.cpu.branchPred.RASInCorrect                  1                       # Number of incorrect RAS predictions.
system.cpu.branchPred.condIncorrect             66570                       # Number of conditional branches incorrect
system.cpu.branchPred.condPredicted          17275853                       # Number of conditional branches predicted
system.cpu.branchPred.indirectHits                  0                       # Number of indirect target hits.
system.cpu.branchPred.indirectLookups             107                       # Number of indirect predictor lookups.
system.cpu.branchPred.indirectMisses              107                       # Number of indirect misses.
system.cpu.branchPred.lookups                17276895                       # Number of BP lookups
system.cpu.branchPred.usedRAS                     349                       # Number of times the RAS was used to get a target.
system.cpu.branchPredindirectMispredicted           50                       # Number of mispredicted indirect branches.
system.cpu.cc_regfile_reads                  50728617                       # number of cc regfile reads
system.cpu.cc_regfile_writes                 50729220                       # number of cc regfile writes
system.cpu.commit.amos                             26                       # Number of atomic instructions committed
system.cpu.commit.branchMispredicts             66356                       # The number of times a branch was mispredicted
system.cpu.commit.branches                   16910249                       # Number of branches committed
system.cpu.commit.bw_lim_events                 67246                       # number cycles where commit BW limit reached
system.cpu.commit.commitNonSpecStalls              77                       # The number of times commit has been forced to stall to communicate backwards
system.cpu.commit.commitSquashedInsts          254424                       # The number of squashed insts skipped by commit
system.cpu.commit.committedInsts            101525543                       # Number of instructions committed
system.cpu.commit.committedOps              118304270                       # Number of ops (including micro ops) committed
system.cpu.commit.committed_per_cycle::samples    118608239                       # Number of insts commited each cycle
system.cpu.commit.committed_per_cycle::mean     0.997437                       # Number of insts commited each cycle
system.cpu.commit.committed_per_cycle::stdev     1.622001                       # Number of insts commited each cycle
system.cpu.commit.committed_per_cycle::underflows            0      0.00%      0.00% # Number of insts commited each cycle
system.cpu.commit.committed_per_cycle::0     85025256     71.69%     71.69% # Number of insts commited each cycle
system.cpu.commit.committed_per_cycle::1         2189      0.00%     71.69% # Number of insts commited each cycle
system.cpu.commit.committed_per_cycle::2       263729      0.22%     71.91% # Number of insts commited each cycle
system.cpu.commit.committed_per_cycle::3     16546117     13.95%     85.86% # Number of insts commited each cycle
system.cpu.commit.committed_per_cycle::4     16407187     13.83%     99.69% # Number of insts commited each cycle
system.cpu.commit.committed_per_cycle::5        52309      0.04%     99.74% # Number of insts commited each cycle
system.cpu.commit.committed_per_cycle::6         1431      0.00%     99.74% # Number of insts commited each cycle
system.cpu.commit.committed_per_cycle::7       242775      0.20%     99.94% # Number of insts commited each cycle
system.cpu.commit.committed_per_cycle::8        67246      0.06%    100.00% # Number of insts commited each cycle
system.cpu.commit.committed_per_cycle::overflows            0      0.00%    100.00% # Number of insts commited each cycle
system.cpu.commit.committed_per_cycle::min_value            0                       # Number of insts commited each cycle
system.cpu.commit.committed_per_cycle::max_value            8                       # Number of insts commited each cycle
system.cpu.commit.committed_per_cycle::total    118608239                       # Number of insts commited each cycle
system.cpu.commit.fp_insts                          0                       # Number of committed floating point instructions.
system.cpu.commit.function_calls                  183                       # Number of function calls committed.
system.cpu.commit.int_insts                  84551794                       # Number of committed integer instructions.
system.cpu.commit.loads                      33621209                       # Number of loads committed
system.cpu.commit.membars                          30                       # Number of memory barriers committed
system.cpu.commit.op_class_0::No_OpClass           33      0.00%      0.00% # Class of committed instruction
system.cpu.commit.op_class_0::IntAlu         67838704     57.34%     57.34% # Class of committed instruction
system.cpu.commit.op_class_0::IntMult               9      0.00%     57.34% # Class of committed instruction
system.cpu.commit.op_class_0::IntDiv                3      0.00%     57.34% # Class of committed instruction
system.cpu.commit.op_class_0::FloatAdd              0      0.00%     57.34% # Class of committed instruction
system.cpu.commit.op_class_0::FloatCmp              0      0.00%     57.34% # Class of committed instruction
system.cpu.commit.op_class_0::FloatCvt              1      0.00%     57.34% # Class of committed instruction
system.cpu.commit.op_class_0::FloatMult             0      0.00%     57.34% # Class of committed instruction
system.cpu.commit.op_class_0::FloatMultAcc     16777216     14.18%     71.52% # Class of committed instruction
system.cpu.commit.op_class_0::FloatDiv              1      0.00%     71.52% # Class of committed instruction
system.cpu.commit.op_class_0::FloatMisc             1      0.00%     71.52% # Class of committed instruction
system.cpu.commit.op_class_0::FloatSqrt             0      0.00%     71.52% # Class of committed instruction
system.cpu.commit.op_class_0::SimdAdd              13      0.00%     71.52% # Class of committed instruction
system.cpu.commit.op_class_0::SimdAddAcc            0      0.00%     71.52% # Class of committed instruction
system.cpu.commit.op_class_0::SimdAlu              12      0.00%     71.52% # Class of committed instruction
system.cpu.commit.op_class_0::SimdCmp              12      0.00%     71.52% # Class of committed instruction
system.cpu.commit.op_class_0::SimdCvt               0      0.00%     71.52% # Class of committed instruction
system.cpu.commit.op_class_0::SimdMisc             15      0.00%     71.52% # Class of committed instruction
system.cpu.commit.op_class_0::SimdMult              0      0.00%     71.52% # Class of committed instruction
system.cpu.commit.op_class_0::SimdMultAcc            0      0.00%     71.52% # Class of committed instruction
system.cpu.commit.op_class_0::SimdShift             0      0.00%     71.52% # Class of committed instruction
system.cpu.commit.op_class_0::SimdShiftAcc            0      0.00%     71.52% # Class of committed instruction
system.cpu.commit.op_class_0::SimdDiv               0      0.00%     71.52% # Class of committed instruction
system.cpu.commit.op_class_0::SimdSqrt              0      0.00%     71.52% # Class of committed instruction
system.cpu.commit.op_class_0::SimdFloatAdd            0      0.00%     71.52% # Class of committed instruction
system.cpu.commit.op_class_0::SimdFloatAlu            0      0.00%     71.52% # Class of committed instruction
system.cpu.commit.op_class_0::SimdFloatCmp            0      0.00%     71.52% # Class of committed instruction
system.cpu.commit.op_class_0::SimdFloatCvt            0      0.00%     71.52% # Class of committed instruction
system.cpu.commit.op_class_0::SimdFloatDiv            0      0.00%     71.52% # Class of committed instruction
system.cpu.commit.op_class_0::SimdFloatMisc            0      0.00%     71.52% # Class of committed instruction
system.cpu.commit.op_class_0::SimdFloatMult            0      0.00%     71.52% # Class of committed instruction
system.cpu.commit.op_class_0::SimdFloatMultAcc            0      0.00%     71.52% # Class of committed instruction
system.cpu.commit.op_class_0::SimdFloatSqrt            0      0.00%     71.52% # Class of committed instruction
system.cpu.commit.op_class_0::SimdReduceAdd            0      0.00%     71.52% # Class of committed instruction
system.cpu.commit.op_class_0::SimdReduceAlu            0      0.00%     71.52% # Class of committed instruction
system.cpu.commit.op_class_0::SimdReduceCmp            0      0.00%     71.52% # Class of committed instruction
system.cpu.commit.op_class_0::SimdFloatReduceAdd            0      0.00%     71.52% # Class of committed instruction
system.cpu.commit.op_class_0::SimdFloatReduceCmp            0      0.00%     71.52% # Class of committed instruction
system.cpu.commit.op_class_0::SimdAes               0      0.00%     71.52% # Class of committed instruction
system.cpu.commit.op_class_0::SimdAesMix            0      0.00%     71.52% # Class of committed instruction
system.cpu.commit.op_class_0::SimdSha1Hash            0      0.00%     71.52% # Class of committed instruction
system.cpu.commit.op_class_0::SimdSha1Hash2            0      0.00%     71.52% # Class of committed instruction
system.cpu.commit.op_class_0::SimdSha256Hash            0      0.00%     71.52% # Class of committed instruction
system.cpu.commit.op_class_0::SimdSha256Hash2            0      0.00%     71.52% # Class of committed instruction
system.cpu.commit.op_class_0::SimdShaSigma2            0      0.00%     71.52% # Class of committed instruction
system.cpu.commit.op_class_0::SimdShaSigma3            0      0.00%     71.52% # Class of committed instruction
system.cpu.commit.op_class_0::SimdPredAlu            0      0.00%     71.52% # Class of committed instruction
system.cpu.commit.op_class_0::MemRead        33621209     28.42%     99.94% # Class of committed instruction
system.cpu.commit.op_class_0::MemWrite          67041      0.06%    100.00% # Class of committed instruction
system.cpu.commit.op_class_0::FloatMemRead            0      0.00%    100.00% # Class of committed instruction
system.cpu.commit.op_class_0::FloatMemWrite            0      0.00%    100.00% # Class of committed instruction
system.cpu.commit.op_class_0::IprAccess             0      0.00%    100.00% # Class of committed instruction
system.cpu.commit.op_class_0::InstPrefetch            0      0.00%    100.00% # Class of committed instruction
system.cpu.commit.op_class_0::total         118304270                       # Class of committed instruction
system.cpu.commit.refs                       33688250                       # Number of memory references committed
system.cpu.commit.swp_count                         0                       # Number of s/w prefetches committed
system.cpu.commit.vec_insts                  50462872                       # Number of committed Vector instructions.
system.cpu.committedInsts                   101459739                       # Number of Instructions Simulated
system.cpu.committedOps                     118238466                       # Number of Ops (including micro ops) Simulated
system.cpu.cpi                               1.169967                       # CPI: Cycles Per Instruction
system.cpu.cpi_total                         1.169967                       # CPI: Total CPI of All Threads
system.cpu.dcache.prefetcher.num_hwpf_issued        19161                       # number of hwpf issued
system.cpu.dcache.prefetcher.pfBufferHit     12286377                       # number of redundant prefetches already in prefetch queue
system.cpu.dcache.prefetcher.pfIdentified     24628366                       # number of prefetch candidates identified
system.cpu.dcache.prefetcher.pfInCache              0                       # number of redundant prefetches already in cache/mshr dropped
system.cpu.dcache.prefetcher.pfRemovedFull         2258                       # number of prefetches dropped due to prefetch queue size
system.cpu.dcache.prefetcher.pfSpanPage      41896714                       # number of prefetches that crossed the page
system.cpu.decode.BlockedCycles              65208014                       # Number of cycles decode is blocked
system.cpu.decode.BranchMispred                   232                       # Number of times decode detected a branch misprediction
system.cpu.decode.BranchResolved             16909098                       # Number of times decode resolved a branch
system.cpu.decode.DecodedInsts              119042168                       # Number of instructions handled by decode
system.cpu.decode.IdleCycles                 13268537                       # Number of cycles decode is idle
system.cpu.decode.RunCycles                  23766591                       # Number of cycles decode is running
system.cpu.decode.SquashCycles                  66375                       # Number of cycles decode is squashing
system.cpu.decode.SquashedInsts                243104                       # Number of squashed instructions handled by decode
system.cpu.decode.UnblockCycles              16365245                       # Number of cycles decode is unblocking
system.cpu.dtb.accesses                             0                       # DTB accesses
system.cpu.dtb.align_faults                         0                       # Number of TLB faults due to alignment restrictions
system.cpu.dtb.domain_faults                        0                       # Number of TLB faults due to domain restrictions
system.cpu.dtb.flush_entries                        0                       # Number of entries that have been flushed from TLB
system.cpu.dtb.flush_tlb                            0                       # Number of times complete TLB was flushed
system.cpu.dtb.flush_tlb_asid                       0                       # Number of times TLB was flushed by ASID
system.cpu.dtb.flush_tlb_mva                        0                       # Number of times TLB was flushed by MVA
system.cpu.dtb.flush_tlb_mva_asid                   0                       # Number of times TLB was flushed by MVA & ASID
system.cpu.dtb.hits                                 0                       # DTB hits
system.cpu.dtb.inst_accesses                        0                       # ITB inst accesses
system.cpu.dtb.inst_hits                            0                       # ITB inst hits
system.cpu.dtb.inst_misses                          0                       # ITB inst misses
system.cpu.dtb.misses                               0                       # DTB misses
system.cpu.dtb.perms_faults                         0                       # Number of TLB faults due to permissions restrictions
system.cpu.dtb.prefetch_faults                      0                       # Number of TLB faults due to prefetch
system.cpu.dtb.read_accesses                        0                       # DTB read accesses
system.cpu.dtb.read_hits                            0                       # DTB read hits
system.cpu.dtb.read_misses                          0                       # DTB read misses
system.cpu.dtb.stage2_mmu.stage2_tlb.accesses            0                       # DTB accesses
system.cpu.dtb.stage2_mmu.stage2_tlb.align_faults            0                       # Number of TLB faults due to alignment restrictions
system.cpu.dtb.stage2_mmu.stage2_tlb.domain_faults            0                       # Number of TLB faults due to domain restrictions
system.cpu.dtb.stage2_mmu.stage2_tlb.flush_entries            0                       # Number of entries that have been flushed from TLB
system.cpu.dtb.stage2_mmu.stage2_tlb.flush_tlb            0                       # Number of times complete TLB was flushed
system.cpu.dtb.stage2_mmu.stage2_tlb.flush_tlb_asid            0                       # Number of times TLB was flushed by ASID
system.cpu.dtb.stage2_mmu.stage2_tlb.flush_tlb_mva            0                       # Number of times TLB was flushed by MVA
system.cpu.dtb.stage2_mmu.stage2_tlb.flush_tlb_mva_asid            0                       # Number of times TLB was flushed by MVA & ASID
system.cpu.dtb.stage2_mmu.stage2_tlb.hits            0                       # DTB hits
system.cpu.dtb.stage2_mmu.stage2_tlb.inst_accesses            0                       # ITB inst accesses
system.cpu.dtb.stage2_mmu.stage2_tlb.inst_hits            0                       # ITB inst hits
system.cpu.dtb.stage2_mmu.stage2_tlb.inst_misses            0                       # ITB inst misses
system.cpu.dtb.stage2_mmu.stage2_tlb.misses            0                       # DTB misses
system.cpu.dtb.stage2_mmu.stage2_tlb.perms_faults            0                       # Number of TLB faults due to permissions restrictions
system.cpu.dtb.stage2_mmu.stage2_tlb.prefetch_faults            0                       # Number of TLB faults due to prefetch
system.cpu.dtb.stage2_mmu.stage2_tlb.read_accesses            0                       # DTB read accesses
system.cpu.dtb.stage2_mmu.stage2_tlb.read_hits            0                       # DTB read hits
system.cpu.dtb.stage2_mmu.stage2_tlb.read_misses            0                       # DTB read misses
system.cpu.dtb.stage2_mmu.stage2_tlb.walker.walkRequestOrigin_Requested::Data            0                       # Table walker requests started/completed, data/inst
system.cpu.dtb.stage2_mmu.stage2_tlb.walker.walkRequestOrigin_Requested::Inst            0                       # Table walker requests started/completed, data/inst
system.cpu.dtb.stage2_mmu.stage2_tlb.walker.walkRequestOrigin_Requested::total            0                       # Table walker requests started/completed, data/inst
system.cpu.dtb.stage2_mmu.stage2_tlb.walker.walkRequestOrigin_Completed::Data            0                       # Table walker requests started/completed, data/inst
system.cpu.dtb.stage2_mmu.stage2_tlb.walker.walkRequestOrigin_Completed::Inst            0                       # Table walker requests started/completed, data/inst
system.cpu.dtb.stage2_mmu.stage2_tlb.walker.walkRequestOrigin_Completed::total            0                       # Table walker requests started/completed, data/inst
system.cpu.dtb.stage2_mmu.stage2_tlb.walker.walkRequestOrigin::total            0                       # Table walker requests started/completed, data/inst
system.cpu.dtb.stage2_mmu.stage2_tlb.walker.walks            0                       # Table walker walks requested
system.cpu.dtb.stage2_mmu.stage2_tlb.write_accesses            0                       # DTB write accesses
system.cpu.dtb.stage2_mmu.stage2_tlb.write_hits            0                       # DTB write hits
system.cpu.dtb.stage2_mmu.stage2_tlb.write_misses            0                       # DTB write misses
system.cpu.dtb.walker.walkRequestOrigin_Requested::Data            0                       # Table walker requests started/completed, data/inst
system.cpu.dtb.walker.walkRequestOrigin_Requested::Inst            0                       # Table walker requests started/completed, data/inst
system.cpu.dtb.walker.walkRequestOrigin_Requested::total            0                       # Table walker requests started/completed, data/inst
system.cpu.dtb.walker.walkRequestOrigin_Completed::Data            0                       # Table walker requests started/completed, data/inst
system.cpu.dtb.walker.walkRequestOrigin_Completed::Inst            0                       # Table walker requests started/completed, data/inst
system.cpu.dtb.walker.walkRequestOrigin_Completed::total            0                       # Table walker requests started/completed, data/inst
system.cpu.dtb.walker.walkRequestOrigin::total            0                       # Table walker requests started/completed, data/inst
system.cpu.dtb.walker.walks                         0                       # Table walker walks requested
system.cpu.dtb.write_accesses                       0                       # DTB write accesses
system.cpu.dtb.write_hits                           0                       # DTB write hits
system.cpu.dtb.write_misses                         0                       # DTB write misses
system.cpu.fetch.Branches                    17276895                       # Number of branches that fetch encountered
system.cpu.fetch.CacheLines                  34625684                       # Number of cache lines fetched
system.cpu.fetch.Cycles                      83961260                       # Number of cycles fetch has run and was not squashing or blocked
system.cpu.fetch.IcacheSquashes                 23900                       # Number of outstanding Icache misses that were squashed
system.cpu.fetch.Insts                      103909813                       # Number of instructions fetch has processed
system.cpu.fetch.SquashCycles                  133178                       # Number of cycles fetch has spent squashing
system.cpu.fetch.branchRate                  0.145545                       # Number of branch fetches per cycle
system.cpu.fetch.icacheStallCycles           34646913                       # Number of cycles fetch is stalled on an Icache miss
system.cpu.fetch.predictedBranches           17208305                       # Number of branches that fetch has predicted taken
system.cpu.fetch.rate                        0.875365                       # Number of inst fetches per cycle
system.cpu.fetch.rateDist::samples          118674762                       # Number of instructions fetched each cycle (Total)
system.cpu.fetch.rateDist::mean              1.020447                       # Number of instructions fetched each cycle (Total)
system.cpu.fetch.rateDist::stdev             1.172777                       # Number of instructions fetched each cycle (Total)
system.cpu.fetch.rateDist::underflows               0      0.00%      0.00% # Number of instructions fetched each cycle (Total)
system.cpu.fetch.rateDist::0                 63033305     53.11%     53.11% # Number of instructions fetched each cycle (Total)
system.cpu.fetch.rateDist::1                  7572857      6.38%     59.50% # Number of instructions fetched each cycle (Total)
system.cpu.fetch.rateDist::2                 30677362     25.85%     85.35% # Number of instructions fetched each cycle (Total)
system.cpu.fetch.rateDist::3                 17391238     14.65%    100.00% # Number of instructions fetched each cycle (Total)
system.cpu.fetch.rateDist::overflows                0      0.00%    100.00% # Number of instructions fetched each cycle (Total)
system.cpu.fetch.rateDist::min_value                0                       # Number of instructions fetched each cycle (Total)
system.cpu.fetch.rateDist::max_value                3                       # Number of instructions fetched each cycle (Total)
system.cpu.fetch.rateDist::total            118674762                       # Number of instructions fetched each cycle (Total)
system.cpu.idleCycles                           29738                       # Total number of cycles that the CPU has spent unscheduled due to idling
system.cpu.iew.branchMispredicts                66390                       # Number of branch mispredicts detected at execute
system.cpu.iew.exec_branches                 16910617                       # Number of branches executed
system.cpu.iew.exec_nop                         65901                       # number of nop insts executed
system.cpu.iew.exec_rate                     1.354450                       # Inst execution rate
system.cpu.iew.exec_refs                     76142023                       # number of memory reference insts executed
system.cpu.iew.exec_stores                      67128                       # Number of stores executed
system.cpu.iew.exec_swp                             0                       # number of swp insts executed
system.cpu.iew.iewBlockCycles                     148                       # Number of cycles IEW is blocking
system.cpu.iew.iewDispLoadInsts              33720817                       # Number of dispatched load instructions
system.cpu.iew.iewDispNonSpecInsts                 84                       # Number of dispatched non-speculative instructions
system.cpu.iew.iewDispSquashedInsts                 0                       # Number of squashed instructions skipped by dispatch
system.cpu.iew.iewDispStoreInsts                67371                       # Number of dispatched store instructions
system.cpu.iew.iewDispatchedInsts           118552402                       # Number of instructions dispatched to IQ
system.cpu.iew.iewExecLoadInsts              76074895                       # Number of load instructions executed
system.cpu.iew.iewExecSquashedInsts             49471                       # Number of squashed instructions skipped in execute
system.cpu.iew.iewExecutedInsts             160779356                       # Number of executed instructions
system.cpu.iew.iewIQFullEvents                      0                       # Number of times the IQ has become full, causing a stall
system.cpu.iew.iewIdleCycles                        0                       # Number of cycles IEW is idle
system.cpu.iew.iewLSQFullEvents              15530424                       # Number of times the LSQ has become full, causing a stall
system.cpu.iew.iewSquashCycles                  66375                       # Number of cycles IEW is squashing
system.cpu.iew.iewUnblockCycles              15515072                       # Number of cycles IEW is unblocking
system.cpu.iew.lsq.thread0.blockedLoads             0                       # Number of blocked loads due to partial load-store forwarding
system.cpu.iew.lsq.thread0.cacheBlocked       4517188                       # Number of times an access to memory failed due to the cache being blocked
system.cpu.iew.lsq.thread0.forwLoads                9                       # Number of loads that had data forwarded from stores
system.cpu.iew.lsq.thread0.ignoredResponses            0                       # Number of memory responses ignored because the instruction is squashed
system.cpu.iew.lsq.thread0.invAddrLoads             0                       # Number of loads ignored due to an invalid address
system.cpu.iew.lsq.thread0.invAddrSwpfs             0                       # Number of software prefetches ignored due to an invalid address
system.cpu.iew.lsq.thread0.memOrderViolation            2                       # Number of memory ordering violations
system.cpu.iew.lsq.thread0.rescheduledLoads            7                       # Number of loads that were rescheduled
system.cpu.iew.lsq.thread0.squashedLoads        99608                       # Number of loads squashed
system.cpu.iew.lsq.thread0.squashedStores          330                       # Number of stores squashed
system.cpu.iew.memOrderViolationEvents              2                       # Number of memory order violations
system.cpu.iew.predictedNotTakenIncorrect          593                       # Number of branches that were predicted not taken incorrectly
system.cpu.iew.predictedTakenIncorrect          65797                       # Number of branches that were predicted taken incorrectly
system.cpu.iew.wb_consumers                 110271254                       # num instructions consuming a value
system.cpu.iew.wb_count                     118325731                       # cumulative count of insts written-back
system.cpu.iew.wb_fanout                     0.713680                       # average fanout of values written-back
system.cpu.iew.wb_producers                  78698394                       # num instructions producing a value
system.cpu.iew.wb_rate                       0.996809                       # insts written-back per cycle
system.cpu.iew.wb_sent                      118325839                       # cumulative count of insts sent to commit
system.cpu.int_regfile_reads                161121884                       # number of integer regfile reads
system.cpu.int_regfile_writes                50951316                       # number of integer regfile writes
system.cpu.ipc                               0.854725                       # IPC: Instructions Per Cycle
system.cpu.ipc_total                         0.854725                       # IPC: Total IPC of All Threads
system.cpu.iq.FU_type_0::No_OpClass                33      0.00%      0.00% # Type of FU issued
system.cpu.iq.FU_type_0::IntAlu              67885791     42.21%     42.21% # Type of FU issued
system.cpu.iq.FU_type_0::IntMult                    9      0.00%     42.21% # Type of FU issued
system.cpu.iq.FU_type_0::IntDiv                     3      0.00%     42.21% # Type of FU issued
system.cpu.iq.FU_type_0::FloatAdd                   0      0.00%     42.21% # Type of FU issued
system.cpu.iq.FU_type_0::FloatCmp                   0      0.00%     42.21% # Type of FU issued
system.cpu.iq.FU_type_0::FloatCvt                   2      0.00%     42.21% # Type of FU issued
system.cpu.iq.FU_type_0::FloatMult                  0      0.00%     42.21% # Type of FU issued
system.cpu.iq.FU_type_0::FloatMultAcc        16777216     10.43%     52.64% # Type of FU issued
system.cpu.iq.FU_type_0::FloatDiv                   2      0.00%     52.64% # Type of FU issued
system.cpu.iq.FU_type_0::FloatMisc                  2      0.00%     52.64% # Type of FU issued
system.cpu.iq.FU_type_0::FloatSqrt                  0      0.00%     52.64% # Type of FU issued
system.cpu.iq.FU_type_0::SimdAdd                   13      0.00%     52.64% # Type of FU issued
system.cpu.iq.FU_type_0::SimdAddAcc                 0      0.00%     52.64% # Type of FU issued
system.cpu.iq.FU_type_0::SimdAlu                   12      0.00%     52.64% # Type of FU issued
system.cpu.iq.FU_type_0::SimdCmp                   12      0.00%     52.64% # Type of FU issued
system.cpu.iq.FU_type_0::SimdCvt                    0      0.00%     52.64% # Type of FU issued
system.cpu.iq.FU_type_0::SimdMisc                  19      0.00%     52.64% # Type of FU issued
system.cpu.iq.FU_type_0::SimdMult                   0      0.00%     52.64% # Type of FU issued
system.cpu.iq.FU_type_0::SimdMultAcc                0      0.00%     52.64% # Type of FU issued
system.cpu.iq.FU_type_0::SimdShift                  0      0.00%     52.64% # Type of FU issued
system.cpu.iq.FU_type_0::SimdShiftAcc               0      0.00%     52.64% # Type of FU issued
system.cpu.iq.FU_type_0::SimdDiv                    0      0.00%     52.64% # Type of FU issued
system.cpu.iq.FU_type_0::SimdSqrt                   0      0.00%     52.64% # Type of FU issued
system.cpu.iq.FU_type_0::SimdFloatAdd               0      0.00%     52.64% # Type of FU issued
system.cpu.iq.FU_type_0::SimdFloatAlu               0      0.00%     52.64% # Type of FU issued
system.cpu.iq.FU_type_0::SimdFloatCmp               0      0.00%     52.64% # Type of FU issued
system.cpu.iq.FU_type_0::SimdFloatCvt               0      0.00%     52.64% # Type of FU issued
system.cpu.iq.FU_type_0::SimdFloatDiv               0      0.00%     52.64% # Type of FU issued
system.cpu.iq.FU_type_0::SimdFloatMisc              0      0.00%     52.64% # Type of FU issued
system.cpu.iq.FU_type_0::SimdFloatMult              0      0.00%     52.64% # Type of FU issued
system.cpu.iq.FU_type_0::SimdFloatMultAcc            0      0.00%     52.64% # Type of FU issued
system.cpu.iq.FU_type_0::SimdFloatSqrt              0      0.00%     52.64% # Type of FU issued
system.cpu.iq.FU_type_0::SimdReduceAdd              0      0.00%     52.64% # Type of FU issued
system.cpu.iq.FU_type_0::SimdReduceAlu              0      0.00%     52.64% # Type of FU issued
system.cpu.iq.FU_type_0::SimdReduceCmp              0      0.00%     52.64% # Type of FU issued
system.cpu.iq.FU_type_0::SimdFloatReduceAdd            0      0.00%     52.64% # Type of FU issued
system.cpu.iq.FU_type_0::SimdFloatReduceCmp            0      0.00%     52.64% # Type of FU issued
system.cpu.iq.FU_type_0::SimdAes                    0      0.00%     52.64% # Type of FU issued
system.cpu.iq.FU_type_0::SimdAesMix                 0      0.00%     52.64% # Type of FU issued
system.cpu.iq.FU_type_0::SimdSha1Hash               0      0.00%     52.64% # Type of FU issued
system.cpu.iq.FU_type_0::SimdSha1Hash2              0      0.00%     52.64% # Type of FU issued
system.cpu.iq.FU_type_0::SimdSha256Hash             0      0.00%     52.64% # Type of FU issued
system.cpu.iq.FU_type_0::SimdSha256Hash2            0      0.00%     52.64% # Type of FU issued
system.cpu.iq.FU_type_0::SimdShaSigma2              0      0.00%     52.64% # Type of FU issued
system.cpu.iq.FU_type_0::SimdShaSigma3              0      0.00%     52.64% # Type of FU issued
system.cpu.iq.FU_type_0::SimdPredAlu                0      0.00%     52.64% # Type of FU issued
system.cpu.iq.FU_type_0::MemRead             76098522     47.32%     99.96% # Type of FU issued
system.cpu.iq.FU_type_0::MemWrite               67191      0.04%    100.00% # Type of FU issued
system.cpu.iq.FU_type_0::FloatMemRead               0      0.00%    100.00% # Type of FU issued
system.cpu.iq.FU_type_0::FloatMemWrite              0      0.00%    100.00% # Type of FU issued
system.cpu.iq.FU_type_0::IprAccess                  0      0.00%    100.00% # Type of FU issued
system.cpu.iq.FU_type_0::InstPrefetch               0      0.00%    100.00% # Type of FU issued
system.cpu.iq.FU_type_0::total              160828827                       # Type of FU issued
system.cpu.iq.fp_alu_accesses                       0                       # Number of floating point alu accesses
system.cpu.iq.fp_inst_queue_reads                   0                       # Number of floating instruction queue reads
system.cpu.iq.fp_inst_queue_wakeup_accesses            0                       # Number of floating instruction queue wakeup accesses
system.cpu.iq.fp_inst_queue_writes                  0                       # Number of floating instruction queue writes
system.cpu.iq.fu_busy_cnt                    59172645                       # FU busy when requested
system.cpu.iq.fu_busy_rate                   0.367923                       # FU busy rate (busy events/executed inst)
system.cpu.iq.fu_full::No_OpClass                   0      0.00%      0.00% # attempts to use FU when none available
system.cpu.iq.fu_full::IntAlu                 2875599      4.86%      4.86% # attempts to use FU when none available
system.cpu.iq.fu_full::IntMult                      0      0.00%      4.86% # attempts to use FU when none available
system.cpu.iq.fu_full::IntDiv                       0      0.00%      4.86% # attempts to use FU when none available
system.cpu.iq.fu_full::FloatAdd                     0      0.00%      4.86% # attempts to use FU when none available
system.cpu.iq.fu_full::FloatCmp                     0      0.00%      4.86% # attempts to use FU when none available
system.cpu.iq.fu_full::FloatCvt                     0      0.00%      4.86% # attempts to use FU when none available
system.cpu.iq.fu_full::FloatMult                    0      0.00%      4.86% # attempts to use FU when none available
system.cpu.iq.fu_full::FloatMultAcc                 0      0.00%      4.86% # attempts to use FU when none available
system.cpu.iq.fu_full::FloatDiv                     0      0.00%      4.86% # attempts to use FU when none available
system.cpu.iq.fu_full::FloatMisc                    0      0.00%      4.86% # attempts to use FU when none available
system.cpu.iq.fu_full::FloatSqrt                    0      0.00%      4.86% # attempts to use FU when none available
system.cpu.iq.fu_full::SimdAdd                      0      0.00%      4.86% # attempts to use FU when none available
system.cpu.iq.fu_full::SimdAddAcc                   0      0.00%      4.86% # attempts to use FU when none available
system.cpu.iq.fu_full::SimdAlu                      1      0.00%      4.86% # attempts to use FU when none available
system.cpu.iq.fu_full::SimdCmp                      3      0.00%      4.86% # attempts to use FU when none available
system.cpu.iq.fu_full::SimdCvt                      0      0.00%      4.86% # attempts to use FU when none available
system.cpu.iq.fu_full::SimdMisc                     0      0.00%      4.86% # attempts to use FU when none available
system.cpu.iq.fu_full::SimdMult                     0      0.00%      4.86% # attempts to use FU when none available
system.cpu.iq.fu_full::SimdMultAcc                  0      0.00%      4.86% # attempts to use FU when none available
system.cpu.iq.fu_full::SimdShift                    0      0.00%      4.86% # attempts to use FU when none available
system.cpu.iq.fu_full::SimdShiftAcc                 0      0.00%      4.86% # attempts to use FU when none available
system.cpu.iq.fu_full::SimdDiv                      0      0.00%      4.86% # attempts to use FU when none available
system.cpu.iq.fu_full::SimdSqrt                     0      0.00%      4.86% # attempts to use FU when none available
system.cpu.iq.fu_full::SimdFloatAdd                 0      0.00%      4.86% # attempts to use FU when none available
system.cpu.iq.fu_full::SimdFloatAlu                 0      0.00%      4.86% # attempts to use FU when none available
system.cpu.iq.fu_full::SimdFloatCmp                 0      0.00%      4.86% # attempts to use FU when none available
system.cpu.iq.fu_full::SimdFloatCvt                 0      0.00%      4.86% # attempts to use FU when none available
system.cpu.iq.fu_full::SimdFloatDiv                 0      0.00%      4.86% # attempts to use FU when none available
system.cpu.iq.fu_full::SimdFloatMisc                0      0.00%      4.86% # attempts to use FU when none available
system.cpu.iq.fu_full::SimdFloatMult                0      0.00%      4.86% # attempts to use FU when none available
system.cpu.iq.fu_full::SimdFloatMultAcc             0      0.00%      4.86% # attempts to use FU when none available
system.cpu.iq.fu_full::SimdFloatSqrt                0      0.00%      4.86% # attempts to use FU when none available
system.cpu.iq.fu_full::SimdReduceAdd                0      0.00%      4.86% # attempts to use FU when none available
system.cpu.iq.fu_full::SimdReduceAlu                0      0.00%      4.86% # attempts to use FU when none available
system.cpu.iq.fu_full::SimdReduceCmp                0      0.00%      4.86% # attempts to use FU when none available
system.cpu.iq.fu_full::SimdFloatReduceAdd            0      0.00%      4.86% # attempts to use FU when none available
system.cpu.iq.fu_full::SimdFloatReduceCmp            0      0.00%      4.86% # attempts to use FU when none available
system.cpu.iq.fu_full::SimdAes                      0      0.00%      4.86% # attempts to use FU when none available
system.cpu.iq.fu_full::SimdAesMix                   0      0.00%      4.86% # attempts to use FU when none available
system.cpu.iq.fu_full::SimdSha1Hash                 0      0.00%      4.86% # attempts to use FU when none available
system.cpu.iq.fu_full::SimdSha1Hash2                0      0.00%      4.86% # attempts to use FU when none available
system.cpu.iq.fu_full::SimdSha256Hash               0      0.00%      4.86% # attempts to use FU when none available
system.cpu.iq.fu_full::SimdSha256Hash2              0      0.00%      4.86% # attempts to use FU when none available
system.cpu.iq.fu_full::SimdShaSigma2                0      0.00%      4.86% # attempts to use FU when none available
system.cpu.iq.fu_full::SimdShaSigma3                0      0.00%      4.86% # attempts to use FU when none available
system.cpu.iq.fu_full::SimdPredAlu                  0      0.00%      4.86% # attempts to use FU when none available
system.cpu.iq.fu_full::MemRead               56296310     95.14%    100.00% # attempts to use FU when none available
system.cpu.iq.fu_full::MemWrite                   732      0.00%    100.00% # attempts to use FU when none available
system.cpu.iq.fu_full::FloatMemRead                 0      0.00%    100.00% # attempts to use FU when none available
system.cpu.iq.fu_full::FloatMemWrite                0      0.00%    100.00% # attempts to use FU when none available
system.cpu.iq.fu_full::IprAccess                    0      0.00%    100.00% # attempts to use FU when none available
system.cpu.iq.fu_full::InstPrefetch                 0      0.00%    100.00% # attempts to use FU when none available
system.cpu.iq.int_alu_accesses               70765711                       # Number of integer alu accesses
system.cpu.iq.int_inst_queue_reads          257329867                       # Number of integer instruction queue reads
system.cpu.iq.int_inst_queue_wakeup_accesses     67862855                       # Number of integer instruction queue wakeup accesses
system.cpu.iq.int_inst_queue_writes          68036909                       # Number of integer instruction queue writes
system.cpu.iq.iqInstsAdded                  118486417                       # Number of instructions added to the IQ (excludes non-spec)
system.cpu.iq.iqInstsIssued                 160828827                       # Number of instructions issued
system.cpu.iq.iqNonSpecInstsAdded                  84                       # Number of non-speculative instructions added to the IQ
system.cpu.iq.iqSquashedInstsExamined          248034                       # Number of squashed instructions iterated over during squash; mainly for profiling
system.cpu.iq.iqSquashedInstsIssued             75540                       # Number of squashed instructions issued
system.cpu.iq.iqSquashedNonSpecRemoved              7                       # Number of squashed non-spec instructions that were removed
system.cpu.iq.iqSquashedOperandsExamined       457853                       # Number of squashed operands that are examined and possibly removed from graph
system.cpu.iq.issued_per_cycle::samples     118674762                       # Number of insts issued each cycle
system.cpu.iq.issued_per_cycle::mean         1.355207                       # Number of insts issued each cycle
system.cpu.iq.issued_per_cycle::stdev        1.054843                       # Number of insts issued each cycle
system.cpu.iq.issued_per_cycle::underflows            0      0.00%      0.00% # Number of insts issued each cycle
system.cpu.iq.issued_per_cycle::0            32450709     27.34%     27.34% # Number of insts issued each cycle
system.cpu.iq.issued_per_cycle::1            31485343     26.53%     53.88% # Number of insts issued each cycle
system.cpu.iq.issued_per_cycle::2            34989861     29.48%     83.36% # Number of insts issued each cycle
system.cpu.iq.issued_per_cycle::3            19631634     16.54%     99.90% # Number of insts issued each cycle
system.cpu.iq.issued_per_cycle::4              117215      0.10%    100.00% # Number of insts issued each cycle
system.cpu.iq.issued_per_cycle::5                   0      0.00%    100.00% # Number of insts issued each cycle
system.cpu.iq.issued_per_cycle::6                   0      0.00%    100.00% # Number of insts issued each cycle
system.cpu.iq.issued_per_cycle::7                   0      0.00%    100.00% # Number of insts issued each cycle
system.cpu.iq.issued_per_cycle::8                   0      0.00%    100.00% # Number of insts issued each cycle
system.cpu.iq.issued_per_cycle::overflows            0      0.00%    100.00% # Number of insts issued each cycle
system.cpu.iq.issued_per_cycle::min_value            0                       # Number of insts issued each cycle
system.cpu.iq.issued_per_cycle::max_value            4                       # Number of insts issued each cycle
system.cpu.iq.issued_per_cycle::total       118674762                       # Number of insts issued each cycle
system.cpu.iq.rate                           1.354867                       # Inst issue rate
system.cpu.iq.vec_alu_accesses              149235728                       # Number of vector alu accesses
system.cpu.iq.vec_inst_queue_reads          242250734                       # Number of vector instruction queue reads
system.cpu.iq.vec_inst_queue_wakeup_accesses     50462876                       # Number of vector instruction queue wakeup accesses
system.cpu.iq.vec_inst_queue_writes          50697628                       # Number of vector instruction queue writes
system.cpu.itb.accesses                             0                       # DTB accesses
system.cpu.itb.align_faults                         0                       # Number of TLB faults due to alignment restrictions
system.cpu.itb.domain_faults                        0                       # Number of TLB faults due to domain restrictions
system.cpu.itb.flush_entries                        0                       # Number of entries that have been flushed from TLB
system.cpu.itb.flush_tlb                            0                       # Number of times complete TLB was flushed
system.cpu.itb.flush_tlb_asid                       0                       # Number of times TLB was flushed by ASID
system.cpu.itb.flush_tlb_mva                        0                       # Number of times TLB was flushed by MVA
system.cpu.itb.flush_tlb_mva_asid                   0                       # Number of times TLB was flushed by MVA & ASID
system.cpu.itb.hits                                 0                       # DTB hits
system.cpu.itb.inst_accesses                        0                       # ITB inst accesses
system.cpu.itb.inst_hits                            0                       # ITB inst hits
system.cpu.itb.inst_misses                          0                       # ITB inst misses
system.cpu.itb.misses                               0                       # DTB misses
system.cpu.itb.perms_faults                         0                       # Number of TLB faults due to permissions restrictions
system.cpu.itb.prefetch_faults                      0                       # Number of TLB faults due to prefetch
system.cpu.itb.read_accesses                        0                       # DTB read accesses
system.cpu.itb.read_hits                            0                       # DTB read hits
system.cpu.itb.read_misses                          0                       # DTB read misses
system.cpu.itb.stage2_mmu.stage2_tlb.accesses            0                       # DTB accesses
system.cpu.itb.stage2_mmu.stage2_tlb.align_faults            0                       # Number of TLB faults due to alignment restrictions
system.cpu.itb.stage2_mmu.stage2_tlb.domain_faults            0                       # Number of TLB faults due to domain restrictions
system.cpu.itb.stage2_mmu.stage2_tlb.flush_entries            0                       # Number of entries that have been flushed from TLB
system.cpu.itb.stage2_mmu.stage2_tlb.flush_tlb            0                       # Number of times complete TLB was flushed
system.cpu.itb.stage2_mmu.stage2_tlb.flush_tlb_asid            0                       # Number of times TLB was flushed by ASID
system.cpu.itb.stage2_mmu.stage2_tlb.flush_tlb_mva            0                       # Number of times TLB was flushed by MVA
system.cpu.itb.stage2_mmu.stage2_tlb.flush_tlb_mva_asid            0                       # Number of times TLB was flushed by MVA & ASID
system.cpu.itb.stage2_mmu.stage2_tlb.hits            0                       # DTB hits
system.cpu.itb.stage2_mmu.stage2_tlb.inst_accesses            0                       # ITB inst accesses
system.cpu.itb.stage2_mmu.stage2_tlb.inst_hits            0                       # ITB inst hits
system.cpu.itb.stage2_mmu.stage2_tlb.inst_misses            0                       # ITB inst misses
system.cpu.itb.stage2_mmu.stage2_tlb.misses            0                       # DTB misses
system.cpu.itb.stage2_mmu.stage2_tlb.perms_faults            0                       # Number of TLB faults due to permissions restrictions
system.cpu.itb.stage2_mmu.stage2_tlb.prefetch_faults            0                       # Number of TLB faults due to prefetch
system.cpu.itb.stage2_mmu.stage2_tlb.read_accesses            0                       # DTB read accesses
system.cpu.itb.stage2_mmu.stage2_tlb.read_hits            0                       # DTB read hits
system.cpu.itb.stage2_mmu.stage2_tlb.read_misses            0                       # DTB read misses
system.cpu.itb.stage2_mmu.stage2_tlb.walker.walkRequestOrigin_Requested::Data            0                       # Table walker requests started/completed, data/inst
system.cpu.itb.stage2_mmu.stage2_tlb.walker.walkRequestOrigin_Requested::Inst            0                       # Table walker requests started/completed, data/inst
system.cpu.itb.stage2_mmu.stage2_tlb.walker.walkRequestOrigin_Requested::total            0                       # Table walker requests started/completed, data/inst
system.cpu.itb.stage2_mmu.stage2_tlb.walker.walkRequestOrigin_Completed::Data            0                       # Table walker requests started/completed, data/inst
system.cpu.itb.stage2_mmu.stage2_tlb.walker.walkRequestOrigin_Completed::Inst            0                       # Table walker requests started/completed, data/inst
system.cpu.itb.stage2_mmu.stage2_tlb.walker.walkRequestOrigin_Completed::total            0                       # Table walker requests started/completed, data/inst
system.cpu.itb.stage2_mmu.stage2_tlb.walker.walkRequestOrigin::total            0                       # Table walker requests started/completed, data/inst
system.cpu.itb.stage2_mmu.stage2_tlb.walker.walks            0                       # Table walker walks requested
system.cpu.itb.stage2_mmu.stage2_tlb.write_accesses            0                       # DTB write accesses
system.cpu.itb.stage2_mmu.stage2_tlb.write_hits            0                       # DTB write hits
system.cpu.itb.stage2_mmu.stage2_tlb.write_misses            0                       # DTB write misses
system.cpu.itb.walker.walkRequestOrigin_Requested::Data            0                       # Table walker requests started/completed, data/inst
system.cpu.itb.walker.walkRequestOrigin_Requested::Inst            0                       # Table walker requests started/completed, data/inst
system.cpu.itb.walker.walkRequestOrigin_Requested::total            0                       # Table walker requests started/completed, data/inst
system.cpu.itb.walker.walkRequestOrigin_Completed::Data            0                       # Table walker requests started/completed, data/inst
system.cpu.itb.walker.walkRequestOrigin_Completed::Inst            0                       # Table walker requests started/completed, data/inst
system.cpu.itb.walker.walkRequestOrigin_Completed::total            0                       # Table walker requests started/completed, data/inst
system.cpu.itb.walker.walkRequestOrigin::total            0                       # Table walker requests started/completed, data/inst
system.cpu.itb.walker.walks                         0                       # Table walker walks requested
system.cpu.itb.write_accesses                       0                       # DTB write accesses
system.cpu.itb.write_hits                           0                       # DTB write hits
system.cpu.itb.write_misses                         0                       # DTB write misses
system.cpu.memDep0.conflictingLoads                 0                       # Number of conflicting loads.
system.cpu.memDep0.conflictingStores                5                       # Number of conflicting stores.
system.cpu.memDep0.insertedLoads             33720817                       # Number of loads inserted to the mem dependence unit.
system.cpu.memDep0.insertedStores               67371                       # Number of stores inserted to the mem dependence unit.
system.cpu.misc_regfile_reads               481597997                       # number of misc regfile reads
system.cpu.misc_regfile_writes               16777287                       # number of misc regfile writes
system.cpu.numCycles                        118704500                       # number of cpu cycles simulated
system.cpu.numWorkItemsCompleted                    0                       # number of work items this cpu completed
system.cpu.numWorkItemsStarted                      0                       # number of work items this cpu started
system.cpu.rename.BlockCycles                17846979                       # Number of cycles rename is blocking
system.cpu.rename.CommittedMaps             168766901                       # Number of HB maps that are committed
system.cpu.rename.FullRegisterEvents               39                       # Number of times there has been no free registers
system.cpu.rename.IdleCycles                 21607180                       # Number of cycles rename is idle
system.cpu.rename.LQFullEvents               39200857                       # Number of times rename has blocked due to LQ full
system.cpu.rename.ROBFullEvents              34334967                       # Number of times rename has blocked due to ROB full
system.cpu.rename.RenameLookups             338289491                       # Number of register rename lookups that rename has made
system.cpu.rename.RenamedInsts              118657542                       # Number of instructions processed by rename
system.cpu.rename.RenamedOperands           169217032                       # Number of destination operands rename has renamed
system.cpu.rename.RunCycles                  30538503                       # Number of cycles rename is running
system.cpu.rename.SQFullEvents                    871                       # Number of times rename has blocked due to SQ full
system.cpu.rename.SquashCycles                  66375                       # Number of cycles rename is squashing
system.cpu.rename.SquashedInsts                143805                       # Number of squashed instructions processed by rename
system.cpu.rename.UnblockCycles              48612672                       # Number of cycles rename is unblocking
system.cpu.rename.UndoneMaps                   450131                       # Number of HB maps that are undone due to squashing
system.cpu.rename.int_rename_lookups        118888437                       # Number of integer rename lookups
system.cpu.rename.serializeStallCycles           3053                       # count of cycles rename stalled for serializing inst
system.cpu.rename.serializingInsts                 65                       # count of serializing insts renamed
system.cpu.rename.skidInsts                  34158912                       # count of insts added to the skid buffer
system.cpu.rename.tempSerializingInsts             23                       # count of temporary serializing insts renamed
system.cpu.rename.vec_rename_lookups         50524809                       # Number of vector rename lookups
system.cpu.rob.rob_reads                    237099479                       # The number of ROB reads
system.cpu.rob.rob_writes                   237183913                       # The number of ROB writes
system.cpu.timesIdled                             331                       # Number of times that the entire CPU went into an idle state and unscheduled itself
system.cpu.vec_regfile_reads                 50397359                       # number of vector regfile reads
system.cpu.vec_regfile_writes                50397247                       # number of vector regfile writes
system.cpu.workload.numSyscalls                    16                       # Number of system calls
system.l2.prefetcher.num_hwpf_issued             8039                       # number of hwpf issued
system.l2.prefetcher.pfBufferHit                   10                       # number of redundant prefetches already in prefetch queue
system.l2.prefetcher.pfIdentified                8064                       # number of prefetch candidates identified
system.l2.prefetcher.pfInCache                      0                       # number of redundant prefetches already in cache/mshr dropped
system.l2.prefetcher.pfRemovedFull                  0                       # number of prefetches dropped due to prefetch queue size
system.l2.prefetcher.pfSpanPage                   342                       # number of prefetches that crossed the page
system.membus.snoop_filter.hit_multi_requests            0                       # Number of requests hitting in the snoop filter with multiple (>1) holders of the requested data.
system.membus.snoop_filter.hit_multi_snoops            0                       # Number of snoops hitting in the snoop filter with multiple (>1) holders of the requested data.
system.membus.snoop_filter.hit_single_requests            0                       # Number of requests hitting in the snoop filter with a single holder of the requested data.
system.membus.snoop_filter.hit_single_snoops            0                       # Number of snoops hitting in the snoop filter with a single holder of the requested data.
system.membus.snoop_filter.tot_requests         13046                       # Total number of requests made to the snoop filter.
system.membus.snoop_filter.tot_snoops               0                       # Total number of snoops made to the snoop filter.
system.tol2bus.snoop_filter.hit_multi_requests            4                       # Number of requests hitting in the snoop filter with multiple (>1) holders of the requested data.
system.tol2bus.snoop_filter.hit_multi_snoops            0                       # Number of snoops hitting in the snoop filter with multiple (>1) holders of the requested data.
system.tol2bus.snoop_filter.hit_single_requests     16921028                       # Number of requests hitting in the snoop filter with a single holder of the requested data.
system.tol2bus.snoop_filter.hit_single_snoops           11                       # Number of snoops hitting in the snoop filter with a single holder of the requested data.
system.tol2bus.snoop_filter.tot_requests     33844437                       # Total number of requests made to the snoop filter.
system.tol2bus.snoop_filter.tot_snoops             11                       # Total number of snoops made to the snoop filter.
system.membus.pwrStateResidencyTicks::UNDEFINED  59352249500                       # Cumulative time (in ticks) in various power states
system.membus.trans_dist::ReadResp              12985                       # Transaction distribution
system.membus.trans_dist::ReadExReq                58                       # Transaction distribution
system.membus.trans_dist::ReadExResp               58                       # Transaction distribution
system.membus.trans_dist::ReadSharedReq         12985                       # Transaction distribution
system.membus.trans_dist::InvalidateReq             3                       # Transaction distribution
system.membus.pkt_count_system.l2.mem_side::system.mem_ctrls.port        26089                       # Packet count per connected master and slave (bytes)
system.membus.pkt_count::total                  26089                       # Packet count per connected master and slave (bytes)
system.membus.pkt_size_system.l2.mem_side::system.mem_ctrls.port       834752                       # Cumulative packet size per connected master and slave (bytes)
system.membus.pkt_size::total                  834752                       # Cumulative packet size per connected master and slave (bytes)
system.membus.snoops                                0                       # Total snoops (count)
system.membus.snoopTraffic                          0                       # Total snoop traffic (bytes)
system.membus.snoop_fanout::samples             13046                       # Request fanout histogram
system.membus.snoop_fanout::mean                    0                       # Request fanout histogram
system.membus.snoop_fanout::stdev                   0                       # Request fanout histogram
system.membus.snoop_fanout::underflows              0      0.00%      0.00% # Request fanout histogram
system.membus.snoop_fanout::0                   13046    100.00%    100.00% # Request fanout histogram
system.membus.snoop_fanout::1                       0      0.00%    100.00% # Request fanout histogram
system.membus.snoop_fanout::overflows               0      0.00%    100.00% # Request fanout histogram
system.membus.snoop_fanout::min_value               0                       # Request fanout histogram
system.membus.snoop_fanout::max_value               0                       # Request fanout histogram
system.membus.snoop_fanout::total               13046                       # Request fanout histogram
system.membus.respLayer1.occupancy           67786544                       # Layer occupancy (ticks)
system.membus.respLayer1.utilization              0.1                       # Layer utilization (%)
system.membus.reqLayer0.occupancy            16145474                       # Layer occupancy (ticks)
system.membus.reqLayer0.utilization               0.0                       # Layer utilization (%)
system.tol2bus.pwrStateResidencyTicks::UNDEFINED  59352249500                       # Cumulative time (in ticks) in various power states
system.tol2bus.trans_dist::ReadResp          16919205                       # Transaction distribution
system.tol2bus.trans_dist::WritebackDirty        68723                       # Transaction distribution
system.tol2bus.trans_dist::WritebackClean           91                       # Transaction distribution
system.tol2bus.trans_dist::CleanEvict        16852216                       # Transaction distribution
system.tol2bus.trans_dist::HardPFReq             8536                       # Transaction distribution
system.tol2bus.trans_dist::ReadExReq             4200                       # Transaction distribution
system.tol2bus.trans_dist::ReadExResp            4200                       # Transaction distribution
system.tol2bus.trans_dist::ReadCleanReq           426                       # Transaction distribution
system.tol2bus.trans_dist::ReadSharedReq     16918780                       # Transaction distribution
system.tol2bus.trans_dist::InvalidateReq            4                       # Transaction distribution
system.tol2bus.trans_dist::InvalidateResp            4                       # Transaction distribution
system.tol2bus.pkt_count_system.cpu.icache.mem_side::system.l2.cpu_side          942                       # Packet count per connected master and slave (bytes)
system.tol2bus.pkt_count_system.cpu.dcache.mem_side::system.l2.cpu_side     50766904                       # Packet count per connected master and slave (bytes)
system.tol2bus.pkt_count::total              50767846                       # Packet count per connected master and slave (bytes)
system.tol2bus.pkt_size_system.cpu.icache.mem_side::system.l2.cpu_side        33024                       # Cumulative packet size per connected master and slave (bytes)
system.tol2bus.pkt_size_system.cpu.dcache.mem_side::system.l2.cpu_side   1087468992                       # Cumulative packet size per connected master and slave (bytes)
system.tol2bus.pkt_size::total             1087502016                       # Cumulative packet size per connected master and slave (bytes)
system.tol2bus.snoops                            8539                       # Total snoops (count)
system.tol2bus.snoopTraffic                         0                       # Total snoop traffic (bytes)
system.tol2bus.snoop_fanout::samples         16931949                       # Request fanout histogram
system.tol2bus.snoop_fanout::mean            0.000001                       # Request fanout histogram
system.tol2bus.snoop_fanout::stdev           0.000972                       # Request fanout histogram
system.tol2bus.snoop_fanout::underflows             0      0.00%      0.00% # Request fanout histogram
system.tol2bus.snoop_fanout::0               16931933    100.00%    100.00% # Request fanout histogram
system.tol2bus.snoop_fanout::1                     16      0.00%    100.00% # Request fanout histogram
system.tol2bus.snoop_fanout::2                      0      0.00%    100.00% # Request fanout histogram
system.tol2bus.snoop_fanout::overflows              0      0.00%    100.00% # Request fanout histogram
system.tol2bus.snoop_fanout::min_value              0                       # Request fanout histogram
system.tol2bus.snoop_fanout::max_value              1                       # Request fanout histogram
system.tol2bus.snoop_fanout::total           16931949                       # Request fanout histogram
system.tol2bus.reqLayer0.occupancy        16997741012                       # Layer occupancy (ticks)
system.tol2bus.reqLayer0.utilization             28.6                       # Layer utilization (%)
system.tol2bus.respLayer1.occupancy       25384472000                       # Layer occupancy (ticks)
system.tol2bus.respLayer1.utilization            42.8                       # Layer utilization (%)
system.tol2bus.respLayer0.occupancy            637999                       # Layer occupancy (ticks)
system.tol2bus.respLayer0.utilization             0.0                       # Layer utilization (%)
system.voltage_domain.voltage                       1                       # Voltage in Volts
system.clk_domain.clock                          1000                       # Clock period in ticks
system.l2.pwrStateResidencyTicks::UNDEFINED  59352249500                       # Cumulative time (in ticks) in various power states
system.l2.demand_hits::.cpu.inst                  159                       # number of demand (read+write) hits
system.l2.demand_hits::.cpu.data             16904308                       # number of demand (read+write) hits
system.l2.demand_hits::.cpu.dcache.prefetcher        12112                       # number of demand (read+write) hits
system.l2.demand_hits::total                 16916579                       # number of demand (read+write) hits
system.l2.overall_hits::.cpu.inst                 159                       # number of overall hits
system.l2.overall_hits::.cpu.data            16904308                       # number of overall hits
system.l2.overall_hits::.cpu.dcache.prefetcher        12112                       # number of overall hits
system.l2.overall_hits::total                16916579                       # number of overall hits
system.l2.demand_misses::.cpu.inst                267                       # number of demand (read+write) misses
system.l2.demand_misses::.cpu.data               5177                       # number of demand (read+write) misses
system.l2.demand_misses::.cpu.dcache.prefetcher         1383                       # number of demand (read+write) misses
system.l2.demand_misses::total                   6827                       # number of demand (read+write) misses
system.l2.overall_misses::.cpu.inst               267                       # number of overall misses
system.l2.overall_misses::.cpu.data              5177                       # number of overall misses
system.l2.overall_misses::.cpu.dcache.prefetcher         1383                       # number of overall misses
system.l2.overall_misses::total                  6827                       # number of overall misses
system.l2.demand_miss_latency::.cpu.inst     22196500                       # number of demand (read+write) miss cycles
system.l2.demand_miss_latency::.cpu.data    419253500                       # number of demand (read+write) miss cycles
system.l2.demand_miss_latency::.cpu.dcache.prefetcher    109380518                       # number of demand (read+write) miss cycles
system.l2.demand_miss_latency::total        550830518                       # number of demand (read+write) miss cycles
system.l2.overall_miss_latency::.cpu.inst     22196500                       # number of overall miss cycles
system.l2.overall_miss_latency::.cpu.data    419253500                       # number of overall miss cycles
system.l2.overall_miss_latency::.cpu.dcache.prefetcher    109380518                       # number of overall miss cycles
system.l2.overall_miss_latency::total       550830518                       # number of overall miss cycles
system.l2.demand_accesses::.cpu.inst              426                       # number of demand (read+write) accesses
system.l2.demand_accesses::.cpu.data         16909485                       # number of demand (read+write) accesses
system.l2.demand_accesses::.cpu.dcache.prefetcher        13495                       # number of demand (read+write) accesses
system.l2.demand_accesses::total             16923406                       # number of demand (read+write) accesses
system.l2.overall_accesses::.cpu.inst             426                       # number of overall (read+write) accesses
system.l2.overall_accesses::.cpu.data        16909485                       # number of overall (read+write) accesses
system.l2.overall_accesses::.cpu.dcache.prefetcher        13495                       # number of overall (read+write) accesses
system.l2.overall_accesses::total            16923406                       # number of overall (read+write) accesses
system.l2.demand_miss_rate::.cpu.inst        0.626761                       # miss rate for demand accesses
system.l2.demand_miss_rate::.cpu.data        0.000306                       # miss rate for demand accesses
system.l2.demand_miss_rate::.cpu.dcache.prefetcher     0.102482                       # miss rate for demand accesses
system.l2.demand_miss_rate::total            0.000403                       # miss rate for demand accesses
system.l2.overall_miss_rate::.cpu.inst       0.626761                       # miss rate for overall accesses
system.l2.overall_miss_rate::.cpu.data       0.000306                       # miss rate for overall accesses
system.l2.overall_miss_rate::.cpu.dcache.prefetcher     0.102482                       # miss rate for overall accesses
system.l2.overall_miss_rate::total           0.000403                       # miss rate for overall accesses
system.l2.demand_avg_miss_latency::.cpu.inst 83132.958801                       # average overall miss latency
system.l2.demand_avg_miss_latency::.cpu.data 80983.870968                       # average overall miss latency
system.l2.demand_avg_miss_latency::.cpu.dcache.prefetcher 79089.311641                       # average overall miss latency
system.l2.demand_avg_miss_latency::total 80684.124506                       # average overall miss latency
system.l2.overall_avg_miss_latency::.cpu.inst 83132.958801                       # average overall miss latency
system.l2.overall_avg_miss_latency::.cpu.data 80983.870968                       # average overall miss latency
system.l2.overall_avg_miss_latency::.cpu.dcache.prefetcher 79089.311641                       # average overall miss latency
system.l2.overall_avg_miss_latency::total 80684.124506                       # average overall miss latency
system.l2.blocked_cycles::no_mshrs                  0                       # number of cycles access was blocked
system.l2.blocked_cycles::no_targets                0                       # number of cycles access was blocked
system.l2.blocked::no_mshrs                         0                       # number of cycles access was blocked
system.l2.blocked::no_targets                       0                       # number of cycles access was blocked
system.l2.avg_blocked_cycles::no_mshrs            nan                       # average number of cycles each access was blocked
system.l2.avg_blocked_cycles::no_targets          nan                       # average number of cycles each access was blocked
system.l2.unused_prefetches                         1                       # number of HardPF blocks evicted w/o reference
system.l2.demand_mshr_hits::.cpu.inst               3                       # number of demand (read+write) MSHR hits
system.l2.demand_mshr_hits::.cpu.data             396                       # number of demand (read+write) MSHR hits
system.l2.demand_mshr_hits::.cpu.dcache.prefetcher          244                       # number of demand (read+write) MSHR hits
system.l2.demand_mshr_hits::total                 643                       # number of demand (read+write) MSHR hits
system.l2.overall_mshr_hits::.cpu.inst              3                       # number of overall MSHR hits
system.l2.overall_mshr_hits::.cpu.data            396                       # number of overall MSHR hits
system.l2.overall_mshr_hits::.cpu.dcache.prefetcher          244                       # number of overall MSHR hits
system.l2.overall_mshr_hits::total                643                       # number of overall MSHR hits
system.l2.demand_mshr_misses::.cpu.inst           264                       # number of demand (read+write) MSHR misses
system.l2.demand_mshr_misses::.cpu.data          4781                       # number of demand (read+write) MSHR misses
system.l2.demand_mshr_misses::.cpu.dcache.prefetcher         1139                       # number of demand (read+write) MSHR misses
system.l2.demand_mshr_misses::total              6184                       # number of demand (read+write) MSHR misses
system.l2.overall_mshr_misses::.cpu.inst          264                       # number of overall MSHR misses
system.l2.overall_mshr_misses::.cpu.data         4781                       # number of overall MSHR misses
system.l2.overall_mshr_misses::.cpu.dcache.prefetcher         1139                       # number of overall MSHR misses
system.l2.overall_mshr_misses::.l2.prefetcher         6859                       # number of overall MSHR misses
system.l2.overall_mshr_misses::total            13043                       # number of overall MSHR misses
system.l2.demand_mshr_miss_latency::.cpu.inst     19385500                       # number of demand (read+write) MSHR miss cycles
system.l2.demand_mshr_miss_latency::.cpu.data    350995000                       # number of demand (read+write) MSHR miss cycles
system.l2.demand_mshr_miss_latency::.cpu.dcache.prefetcher     84039546                       # number of demand (read+write) MSHR miss cycles
system.l2.demand_mshr_miss_latency::total    454420046                       # number of demand (read+write) MSHR miss cycles
system.l2.overall_mshr_miss_latency::.cpu.inst     19385500                       # number of overall MSHR miss cycles
system.l2.overall_mshr_miss_latency::.cpu.data    350995000                       # number of overall MSHR miss cycles
system.l2.overall_mshr_miss_latency::.cpu.dcache.prefetcher     84039546                       # number of overall MSHR miss cycles
system.l2.overall_mshr_miss_latency::.l2.prefetcher    440868882                       # number of overall MSHR miss cycles
system.l2.overall_mshr_miss_latency::total    895288928                       # number of overall MSHR miss cycles
system.l2.demand_mshr_miss_rate::.cpu.inst     0.619718                       # mshr miss rate for demand accesses
system.l2.demand_mshr_miss_rate::.cpu.data     0.000283                       # mshr miss rate for demand accesses
system.l2.demand_mshr_miss_rate::.cpu.dcache.prefetcher     0.084402                       # mshr miss rate for demand accesses
system.l2.demand_mshr_miss_rate::total       0.000365                       # mshr miss rate for demand accesses
system.l2.overall_mshr_miss_rate::.cpu.inst     0.619718                       # mshr miss rate for overall accesses
system.l2.overall_mshr_miss_rate::.cpu.data     0.000283                       # mshr miss rate for overall accesses
system.l2.overall_mshr_miss_rate::.cpu.dcache.prefetcher     0.084402                       # mshr miss rate for overall accesses
system.l2.overall_mshr_miss_rate::.l2.prefetcher          inf                       # mshr miss rate for overall accesses
system.l2.overall_mshr_miss_rate::total      0.000771                       # mshr miss rate for overall accesses
system.l2.demand_avg_mshr_miss_latency::.cpu.inst 73429.924242                       # average overall mshr miss latency
system.l2.demand_avg_mshr_miss_latency::.cpu.data 73414.557624                       # average overall mshr miss latency
system.l2.demand_avg_mshr_miss_latency::.cpu.dcache.prefetcher 73783.622476                       # average overall mshr miss latency
system.l2.demand_avg_mshr_miss_latency::total 73483.189845                       # average overall mshr miss latency
system.l2.overall_avg_mshr_miss_latency::.cpu.inst 73429.924242                       # average overall mshr miss latency
system.l2.overall_avg_mshr_miss_latency::.cpu.data 73414.557624                       # average overall mshr miss latency
system.l2.overall_avg_mshr_miss_latency::.cpu.dcache.prefetcher 73783.622476                       # average overall mshr miss latency
system.l2.overall_avg_mshr_miss_latency::.l2.prefetcher 64275.970550                       # average overall mshr miss latency
system.l2.overall_avg_mshr_miss_latency::total 68641.334662                       # average overall mshr miss latency
system.l2.replacements                              3                       # number of replacements
system.l2.WritebackDirty_hits::.writebacks        68723                       # number of WritebackDirty hits
system.l2.WritebackDirty_hits::total            68723                       # number of WritebackDirty hits
system.l2.WritebackDirty_accesses::.writebacks        68723                       # number of WritebackDirty accesses(hits+misses)
system.l2.WritebackDirty_accesses::total        68723                       # number of WritebackDirty accesses(hits+misses)
system.l2.WritebackClean_hits::.writebacks           91                       # number of WritebackClean hits
[...]
system.cpu.dcache.overall_mshr_misses::.cpu.data     16909487                       # number of overall MSHR misses
system.cpu.dcache.overall_mshr_misses::.cpu.dcache.prefetcher        13495                       # number of overall MSHR misses
system.cpu.dcache.overall_mshr_misses::total     16922982                       # number of overall MSHR misses
system.cpu.dcache.demand_mshr_miss_latency::.cpu.data 215633503237                       # number of demand (read+write) MSHR miss cycles
system.cpu.dcache.demand_mshr_miss_latency::total 215633503237                       # number of demand (read+write) MSHR miss cycles
system.cpu.dcache.overall_mshr_miss_latency::.cpu.data 215633503237                       # number of overall MSHR miss cycles
system.cpu.dcache.overall_mshr_miss_latency::.cpu.dcache.prefetcher    256297480                       # number of overall MSHR miss cycles
system.cpu.dcache.overall_mshr_miss_latency::total 215889800717                       # number of overall MSHR miss cycles
system.cpu.dcache.demand_mshr_miss_rate::.cpu.data     0.501935                       # mshr miss rate for demand accesses
system.cpu.dcache.demand_mshr_miss_rate::total     0.501935                       # mshr miss rate for demand accesses
system.cpu.dcache.overall_mshr_miss_rate::.cpu.data     0.501935                       # mshr miss rate for overall accesses
system.cpu.dcache.overall_mshr_miss_rate::.cpu.dcache.prefetcher          inf                       # mshr miss rate for overall accesses
system.cpu.dcache.overall_mshr_miss_rate::total     0.502336                       # mshr miss rate for overall accesses
system.cpu.dcache.demand_avg_mshr_miss_latency::.cpu.data 12752.220291                       # average overall mshr miss latency
system.cpu.dcache.demand_avg_mshr_miss_latency::total 12752.220291                       # average overall mshr miss latency
system.cpu.dcache.overall_avg_mshr_miss_latency::.cpu.data 12752.220291                       # average overall mshr miss latency
system.cpu.dcache.overall_avg_mshr_miss_latency::.cpu.dcache.prefetcher 18992.032605                       # average overall mshr miss latency
system.cpu.dcache.overall_avg_mshr_miss_latency::total 12757.196144                       # average overall mshr miss latency
system.cpu.dcache.replacements               16920936                       # number of replacements
system.cpu.dcache.ReadReq_hits::.cpu.data     16595831                       # number of ReadReq hits
system.cpu.dcache.ReadReq_hits::total        16595831                       # number of ReadReq hits
system.cpu.dcache.ReadReq_misses::.cpu.data     17025729                       # number of ReadReq misses
system.cpu.dcache.ReadReq_misses::total      17025729                       # number of ReadReq misses
system.cpu.dcache.ReadReq_miss_latency::.cpu.data 233785032000                       # number of ReadReq miss cycles
system.cpu.dcache.ReadReq_miss_latency::total 233785032000                       # number of ReadReq miss cycles
system.cpu.dcache.ReadReq_accesses::.cpu.data     33621560                       # number of ReadReq accesses(hits+misses)
system.cpu.dcache.ReadReq_accesses::total     33621560                       # number of ReadReq accesses(hits+misses)
system.cpu.dcache.ReadReq_miss_rate::.cpu.data     0.506393                       # miss rate for ReadReq accesses
system.cpu.dcache.ReadReq_miss_rate::total     0.506393                       # miss rate for ReadReq accesses
system.cpu.dcache.ReadReq_avg_miss_latency::.cpu.data 13731.278819                       # average ReadReq miss latency
system.cpu.dcache.ReadReq_avg_miss_latency::total 13731.278819                       # average ReadReq miss latency
system.cpu.dcache.ReadReq_mshr_hits::.cpu.data       120445                       # number of ReadReq MSHR hits
system.cpu.dcache.ReadReq_mshr_hits::total       120445                       # number of ReadReq MSHR hits
system.cpu.dcache.ReadReq_mshr_misses::.cpu.data     16905284                       # number of ReadReq MSHR misses
system.cpu.dcache.ReadReq_mshr_misses::total     16905284                       # number of ReadReq MSHR misses
system.cpu.dcache.ReadReq_mshr_miss_latency::.cpu.data 215575687500                       # number of ReadReq MSHR miss cycles
system.cpu.dcache.ReadReq_mshr_miss_latency::total 215575687500                       # number of ReadReq MSHR miss cycles
system.cpu.dcache.ReadReq_mshr_miss_rate::.cpu.data     0.502811                       # mshr miss rate for ReadReq accesses
system.cpu.dcache.ReadReq_mshr_miss_rate::total     0.502811                       # mshr miss rate for ReadReq accesses
system.cpu.dcache.ReadReq_avg_mshr_miss_latency::.cpu.data 12751.970774                       # average ReadReq mshr miss latency
system.cpu.dcache.ReadReq_avg_mshr_miss_latency::total 12751.970774                       # average ReadReq mshr miss latency
system.cpu.dcache.WriteReq_hits::.cpu.data        62373                       # number of WriteReq hits
system.cpu.dcache.WriteReq_hits::total          62373                       # number of WriteReq hits
system.cpu.dcache.WriteReq_misses::.cpu.data         4631                       # number of WriteReq misses
system.cpu.dcache.WriteReq_misses::total         4631                       # number of WriteReq misses
system.cpu.dcache.WriteReq_miss_latency::.cpu.data     80388209                       # number of WriteReq miss cycles
system.cpu.dcache.WriteReq_miss_latency::total     80388209                       # number of WriteReq miss cycles
system.cpu.dcache.WriteReq_accesses::.cpu.data        67004                       # number of WriteReq accesses(hits+misses)
system.cpu.dcache.WriteReq_accesses::total        67004                       # number of WriteReq accesses(hits+misses)
system.cpu.dcache.WriteReq_miss_rate::.cpu.data     0.069115                       # miss rate for WriteReq accesses
system.cpu.dcache.WriteReq_miss_rate::total     0.069115                       # miss rate for WriteReq accesses
system.cpu.dcache.WriteReq_avg_miss_latency::.cpu.data 17358.714964                       # average WriteReq miss latency
system.cpu.dcache.WriteReq_avg_miss_latency::total 17358.714964                       # average WriteReq miss latency
system.cpu.dcache.WriteReq_mshr_hits::.cpu.data          432                       # number of WriteReq MSHR hits
system.cpu.dcache.WriteReq_mshr_hits::total          432                       # number of WriteReq MSHR hits
system.cpu.dcache.WriteReq_mshr_misses::.cpu.data         4199                       # number of WriteReq MSHR misses
system.cpu.dcache.WriteReq_mshr_misses::total         4199                       # number of WriteReq MSHR misses
system.cpu.dcache.WriteReq_mshr_miss_latency::.cpu.data     57712737                       # number of WriteReq MSHR miss cycles
system.cpu.dcache.WriteReq_mshr_miss_latency::total     57712737                       # number of WriteReq MSHR miss cycles
system.cpu.dcache.WriteReq_mshr_miss_rate::.cpu.data     0.062668                       # mshr miss rate for WriteReq accesses
system.cpu.dcache.WriteReq_mshr_miss_rate::total     0.062668                       # mshr miss rate for WriteReq accesses
system.cpu.dcache.WriteReq_avg_mshr_miss_latency::.cpu.data 13744.400333                       # average WriteReq mshr miss latency
system.cpu.dcache.WriteReq_avg_mshr_miss_latency::total 13744.400333                       # average WriteReq mshr miss latency
system.cpu.dcache.HardPFReq_mshr_misses::.cpu.dcache.prefetcher        13495                       # number of HardPFReq MSHR misses
system.cpu.dcache.HardPFReq_mshr_misses::total        13495                       # number of HardPFReq MSHR misses
system.cpu.dcache.HardPFReq_mshr_miss_latency::.cpu.dcache.prefetcher    256297480                       # number of HardPFReq MSHR miss cycles
system.cpu.dcache.HardPFReq_mshr_miss_latency::total    256297480                       # number of HardPFReq MSHR miss cycles
system.cpu.dcache.HardPFReq_mshr_miss_rate::.cpu.dcache.prefetcher          inf                       # mshr miss rate for HardPFReq accesses
system.cpu.dcache.HardPFReq_mshr_miss_rate::total          inf                       # mshr miss rate for HardPFReq accesses
system.cpu.dcache.HardPFReq_avg_mshr_miss_latency::.cpu.dcache.prefetcher 18992.032605                       # average HardPFReq mshr miss latency
system.cpu.dcache.HardPFReq_avg_mshr_miss_latency::total 18992.032605                       # average HardPFReq mshr miss latency
system.cpu.dcache.WriteLineReq_hits::.cpu.data            2                       # number of WriteLineReq hits
system.cpu.dcache.WriteLineReq_hits::total            2                       # number of WriteLineReq hits
system.cpu.dcache.WriteLineReq_misses::.cpu.data            5                       # number of WriteLineReq misses
system.cpu.dcache.WriteLineReq_misses::total            5                       # number of WriteLineReq misses
system.cpu.dcache.WriteLineReq_miss_latency::.cpu.data       109000                       # number of WriteLineReq miss cycles
system.cpu.dcache.WriteLineReq_miss_latency::total       109000                       # number of WriteLineReq miss cycles
system.cpu.dcache.WriteLineReq_accesses::.cpu.data            7                       # number of WriteLineReq accesses(hits+misses)
system.cpu.dcache.WriteLineReq_accesses::total            7                       # number of WriteLineReq accesses(hits+misses)
system.cpu.dcache.WriteLineReq_miss_rate::.cpu.data     0.714286                       # miss rate for WriteLineReq accesses
system.cpu.dcache.WriteLineReq_miss_rate::total     0.714286                       # miss rate for WriteLineReq accesses
system.cpu.dcache.WriteLineReq_avg_miss_latency::.cpu.data        21800                       # average WriteLineReq miss latency
system.cpu.dcache.WriteLineReq_avg_miss_latency::total        21800                       # average WriteLineReq miss latency
system.cpu.dcache.WriteLineReq_mshr_hits::.cpu.data            1                       # number of WriteLineReq MSHR hits
system.cpu.dcache.WriteLineReq_mshr_hits::total            1                       # number of WriteLineReq MSHR hits
system.cpu.dcache.WriteLineReq_mshr_misses::.cpu.data            4                       # number of WriteLineReq MSHR misses
system.cpu.dcache.WriteLineReq_mshr_misses::total            4                       # number of WriteLineReq MSHR misses
system.cpu.dcache.WriteLineReq_mshr_miss_latency::.cpu.data       103000                       # number of WriteLineReq MSHR miss cycles
system.cpu.dcache.WriteLineReq_mshr_miss_latency::total       103000                       # number of WriteLineReq MSHR miss cycles
system.cpu.dcache.WriteLineReq_mshr_miss_rate::.cpu.data     0.571429                       # mshr miss rate for WriteLineReq accesses
system.cpu.dcache.WriteLineReq_mshr_miss_rate::total     0.571429                       # mshr miss rate for WriteLineReq accesses
system.cpu.dcache.WriteLineReq_avg_mshr_miss_latency::.cpu.data        25750                       # average WriteLineReq mshr miss latency
system.cpu.dcache.WriteLineReq_avg_mshr_miss_latency::total        25750                       # average WriteLineReq mshr miss latency
system.cpu.dcache.LoadLockedReq_hits::.cpu.data            3                       # number of LoadLockedReq hits
system.cpu.dcache.LoadLockedReq_hits::total            3                       # number of LoadLockedReq hits
system.cpu.dcache.LoadLockedReq_misses::.cpu.data            1                       # number of LoadLockedReq misses
system.cpu.dcache.LoadLockedReq_misses::total            1                       # number of LoadLockedReq misses
system.cpu.dcache.LoadLockedReq_miss_latency::.cpu.data        86000                       # number of LoadLockedReq miss cycles
system.cpu.dcache.LoadLockedReq_miss_latency::total        86000                       # number of LoadLockedReq miss cycles
system.cpu.dcache.LoadLockedReq_accesses::.cpu.data            4                       # number of LoadLockedReq accesses(hits+misses)
system.cpu.dcache.LoadLockedReq_accesses::total            4                       # number of LoadLockedReq accesses(hits+misses)
system.cpu.dcache.LoadLockedReq_miss_rate::.cpu.data     0.250000                       # miss rate for LoadLockedReq accesses
system.cpu.dcache.LoadLockedReq_miss_rate::total     0.250000                       # miss rate for LoadLockedReq accesses
system.cpu.dcache.LoadLockedReq_avg_miss_latency::.cpu.data        86000                       # average LoadLockedReq miss latency
system.cpu.dcache.LoadLockedReq_avg_miss_latency::total        86000                       # average LoadLockedReq miss latency
system.cpu.dcache.LoadLockedReq_mshr_misses::.cpu.data            1                       # number of LoadLockedReq MSHR misses
system.cpu.dcache.LoadLockedReq_mshr_misses::total            1                       # number of LoadLockedReq MSHR misses
system.cpu.dcache.LoadLockedReq_mshr_miss_latency::.cpu.data        85000                       # number of LoadLockedReq MSHR miss cycles
system.cpu.dcache.LoadLockedReq_mshr_miss_latency::total        85000                       # number of LoadLockedReq MSHR miss cycles
system.cpu.dcache.LoadLockedReq_mshr_miss_rate::.cpu.data     0.250000                       # mshr miss rate for LoadLockedReq accesses
system.cpu.dcache.LoadLockedReq_mshr_miss_rate::total     0.250000                       # mshr miss rate for LoadLockedReq accesses
system.cpu.dcache.LoadLockedReq_avg_mshr_miss_latency::.cpu.data        85000                       # average LoadLockedReq mshr miss latency
system.cpu.dcache.LoadLockedReq_avg_mshr_miss_latency::total        85000                       # average LoadLockedReq mshr miss latency
system.cpu.dcache.StoreCondReq_hits::.cpu.data            4                       # number of StoreCondReq hits
system.cpu.dcache.StoreCondReq_hits::total            4                       # number of StoreCondReq hits
system.cpu.dcache.StoreCondReq_accesses::.cpu.data            4                       # number of StoreCondReq accesses(hits+misses)
system.cpu.dcache.StoreCondReq_accesses::total            4                       # number of StoreCondReq accesses(hits+misses)
system.cpu.dcache.SwapReq_hits::.cpu.data           24                       # number of SwapReq hits
system.cpu.dcache.SwapReq_hits::total              24                       # number of SwapReq hits
system.cpu.dcache.SwapReq_misses::.cpu.data            2                       # number of SwapReq misses
system.cpu.dcache.SwapReq_misses::total             2                       # number of SwapReq misses
system.cpu.dcache.SwapReq_miss_latency::.cpu.data        76500                       # number of SwapReq miss cycles
system.cpu.dcache.SwapReq_miss_latency::total        76500                       # number of SwapReq miss cycles
system.cpu.dcache.SwapReq_accesses::.cpu.data           26                       # number of SwapReq accesses(hits+misses)
system.cpu.dcache.SwapReq_accesses::total           26                       # number of SwapReq accesses(hits+misses)
system.cpu.dcache.SwapReq_miss_rate::.cpu.data     0.076923                       # miss rate for SwapReq accesses
system.cpu.dcache.SwapReq_miss_rate::total     0.076923                       # miss rate for SwapReq accesses
system.cpu.dcache.SwapReq_avg_miss_latency::.cpu.data        38250                       # average SwapReq miss latency
system.cpu.dcache.SwapReq_avg_miss_latency::total        38250                       # average SwapReq miss latency
system.cpu.dcache.SwapReq_mshr_hits::.cpu.data            1                       # number of SwapReq MSHR hits
system.cpu.dcache.SwapReq_mshr_hits::total            1                       # number of SwapReq MSHR hits
system.cpu.dcache.SwapReq_mshr_misses::.cpu.data            1                       # number of SwapReq MSHR misses
system.cpu.dcache.SwapReq_mshr_misses::total            1                       # number of SwapReq MSHR misses
system.cpu.dcache.SwapReq_mshr_miss_latency::.cpu.data        12000                       # number of SwapReq MSHR miss cycles
system.cpu.dcache.SwapReq_mshr_miss_latency::total        12000                       # number of SwapReq MSHR miss cycles
system.cpu.dcache.SwapReq_mshr_miss_rate::.cpu.data     0.038462                       # mshr miss rate for SwapReq accesses
system.cpu.dcache.SwapReq_mshr_miss_rate::total     0.038462                       # mshr miss rate for SwapReq accesses
system.cpu.dcache.SwapReq_avg_mshr_miss_latency::.cpu.data        12000                       # average SwapReq mshr miss latency
system.cpu.dcache.SwapReq_avg_mshr_miss_latency::total        12000                       # average SwapReq mshr miss latency
system.cpu.dcache.prefetcher.pwrStateResidencyTicks::UNDEFINED  59352249500                       # Cumulative time (in ticks) in various power states
system.cpu.dcache.tags.pwrStateResidencyTicks::UNDEFINED  59352249500                       # Cumulative time (in ticks) in various power states
system.cpu.dcache.tags.tagsinuse          2043.443325                       # Cycle average of tags in use
system.cpu.dcache.tags.total_refs            33581221                       # Total number of references to valid blocks.
system.cpu.dcache.tags.sampled_refs          16922984                       # Sample count of references to valid blocks.
system.cpu.dcache.tags.avg_refs              1.984356                       # Average number of references to valid blocks.
system.cpu.dcache.tags.warmup_cycle            178500                       # Cycle when the warmup percentage was hit.
system.cpu.dcache.tags.occ_blocks::.cpu.data  2016.756819                       # Average occupied blocks per requestor
system.cpu.dcache.tags.occ_blocks::.cpu.dcache.prefetcher    26.686506                       # Average occupied blocks per requestor
system.cpu.dcache.tags.occ_percent::.cpu.data     0.984745                       # Average percentage of cache occupancy
system.cpu.dcache.tags.occ_percent::.cpu.dcache.prefetcher     0.013031                       # Average percentage of cache occupancy
system.cpu.dcache.tags.occ_percent::total     0.997775                       # Average percentage of cache occupancy
system.cpu.dcache.tags.occ_task_id_blocks::1022           40                       # Occupied blocks per task id
system.cpu.dcache.tags.occ_task_id_blocks::1024         2008                       # Occupied blocks per task id
system.cpu.dcache.tags.age_task_id_blocks_1022::0           11                       # Occupied blocks per task id
system.cpu.dcache.tags.age_task_id_blocks_1022::1           24                       # Occupied blocks per task id
system.cpu.dcache.tags.age_task_id_blocks_1022::2            5                       # Occupied blocks per task id
system.cpu.dcache.tags.age_task_id_blocks_1024::0          200                       # Occupied blocks per task id
system.cpu.dcache.tags.age_task_id_blocks_1024::1          848                       # Occupied blocks per task id
system.cpu.dcache.tags.age_task_id_blocks_1024::2          960                       # Occupied blocks per task id
system.cpu.dcache.tags.occ_task_id_percent::1022     0.019531                       # Percentage of cache occupancy per task id
system.cpu.dcache.tags.occ_task_id_percent::1024     0.980469                       # Percentage of cache occupancy per task id
system.cpu.dcache.tags.tag_accesses          84300194                       # Number of tag accesses
system.cpu.dcache.tags.data_accesses         84300194                       # Number of data accesses

---------- End Simulation Statistics   ----------
