
---------- Begin Simulation Statistics ----------
final_tick                                58322678500                       # Number of ticks from beginning of simulation (restored from checkpoints and never reset)
host_inst_rate                                 378290                       # Simulator instruction rate (inst/s)
host_mem_usage                                8497348                       # Number of bytes of host memory used
host_op_rate                                   440849                       # Simulator op (including micro ops) rate (op/s)
host_seconds                                   268.21                       # Real time elapsed on the host
host_tick_rate                              217454686                       # Simulator tick rate (ticks/s)
sim_freq                                 1000000000000                       # Frequency of simulated ticks
sim_insts                                   101459739                       # Number of instructions simulated
sim_ops                                     118238466                       # Number of ops (including micro ops) simulated
sim_seconds                                  0.058323                       # Number of seconds simulated
sim_ticks                                 58322678500                       # Number of ticks simulated
system.cpu.branchPred.BTBCorrect                    0                       # Number of correct BTB predictions (this stat may not work properly.
system.cpu.branchPred.BTBHitPct             99.997229                       # BTB Hit Percentage
system.cpu.branchPred.BTBHits                17214301                       # Number of BTB hits
system.cpu.branchPred.BTBLookups             17214778                       # Number of BTB lookups
system.cpu.branchPred.RASInCorrect                  1                       # Number of incorrect RAS predictions.
system.cpu.branchPred.condIncorrect             66582                       # Number of conditional branches incorrect
system.cpu.branchPred.condPredicted          17282212                       # Number of conditional branches predicted
system.cpu.branchPred.indirectHits                  1                       # Number of indirect target hits.
system.cpu.branchPred.indirectLookups             114                       # Number of indirect predictor lookups.
system.cpu.branchPred.indirectMisses              113                       # Number of indirect misses.
system.cpu.branchPred.lookups                17283267                       # Number of BP lookups
system.cpu.branchPred.usedRAS                     338                       # Number of times the RAS was used to get a target.
system.cpu.branchPredindirectMispredicted           49                       # Number of mispredicted indirect branches.
system.cpu.cc_regfile_reads                  50728581                       # number of cc regfile reads
system.cpu.cc_regfile_writes                 50729343                       # number of cc regfile writes
system.cpu.commit.amos                             26                       # Number of atomic instructions committed
system.cpu.commit.branchMispredicts             66366                       # The number of times a branch was mispredicted
system.cpu.commit.branches                   16910249                       # Number of branches committed
system.cpu.commit.bw_lim_events                 67563                       # number cycles where commit BW limit reached
system.cpu.commit.commitNonSpecStalls              77                       # The number of times commit has been forced to stall to communicate backwards
system.cpu.commit.commitSquashedInsts          254749                       # The number of squashed insts skipped by commit
system.cpu.commit.committedInsts            101525543                       # Number of instructions committed
system.cpu.commit.committedOps              118304270                       # Number of ops (including micro ops) committed
system.cpu.commit.committed_per_cycle::samples    116538194                       # Number of insts commited each cycle
system.cpu.commit.committed_per_cycle::mean     1.015154                       # Number of insts commited each cycle
system.cpu.commit.committed_per_cycle::stdev     1.667011                       # Number of insts commited each cycle
system.cpu.commit.committed_per_cycle::underflows            0      0.00%      0.00% # Number of insts commited each cycle
system.cpu.commit.committed_per_cycle::0     83463808     71.62%     71.62% # Number of insts commited each cycle
system.cpu.commit.committed_per_cycle::1        13320      0.01%     71.63% # Number of insts commited each cycle
system.cpu.commit.committed_per_cycle::2       482820      0.41%     72.05% # Number of insts commited each cycle
system.cpu.commit.committed_per_cycle::3     15888575     13.63%     85.68% # Number of insts commited each cycle
system.cpu.commit.committed_per_cycle::4     15676088     13.45%     99.13% # Number of insts commited each cycle
system.cpu.commit.committed_per_cycle::5       103157      0.09%     99.22% # Number of insts commited each cycle
system.cpu.commit.committed_per_cycle::6         1097      0.00%     99.22% # Number of insts commited each cycle
system.cpu.commit.committed_per_cycle::7       841766      0.72%     99.94% # Number of insts commited each cycle
system.cpu.commit.committed_per_cycle::8        67563      0.06%    100.00% # Number of insts commited each cycle
system.cpu.commit.committed_per_cycle::overflows            0      0.00%    100.00% # Number of insts commited each cycle
system.cpu.commit.committed_per_cycle::min_value            0                       # Number of insts commited each cycle
system.cpu.commit.committed_per_cycle::max_value            8                       # Number of insts commited each cycle
system.cpu.commit.committed_per_cycle::total    116538194                       # Number of insts commited each cycle
system.cpu.commit.fp_insts                          0                       # Number of committed floating point instructions.
system.cpu.commit.function_calls                  183                       # Number of function calls committed.
system.cpu.commit.int_insts                  84551794                       # Number of committed integer instructions.
system.cpu.commit.loads                      33621209                       # Number of loads committed
system.cpu.commit.membars                          30                       # Number of memory barriers committed
system.cpu.commit.op_class_0::No_OpClass           33      0.00%      0.00% # Class of committed instruction
system.cpu.commit.op_class_0::IntAlu         67838704     57.34%     57.34% # Class of committed instruction
system.cpu.commit.op_class_0::IntMult               9      0.00%     57.34% # Class of committed instruction
system.cpu.commit.op_class_0::IntDiv                3      0.00%     57.34% # Class of committed instruction
system.cpu.commit.op_class_0::FloatAdd              0      0.00%     57.34% # Class of committed instruction
system.cpu.commit.op_class_0::FloatCmp              0      0.00%     57.34% # Class of committed instruction
system.cpu.commit.op_class_0::FloatCvt              1      0.00%     57.34% # Class of committed instruction
system.cpu.commit.op_class_0::FloatMult             0      0.00%     57.34% # Class of committed instruction
system.cpu.commit.op_class_0::FloatMultAcc     16777216     14.18%     71.52% # Class of committed instruction
system.cpu.commit.op_class_0::FloatDiv              1      0.00%     71.52% # Class of committed instruction
system.cpu.commit.op_class_0::FloatMisc             1      0.00%     71.52% # Class of committed instruction
system.cpu.commit.op_class_0::FloatSqrt             0      0.00%     71.52% # Class of committed instruction
system.cpu.commit.op_class_0::SimdAdd              13      0.00%     71.52% # Class of committed instruction
system.cpu.commit.op_class_0::SimdAddAcc            0      0.00%     71.52% # Class of committed instruction
system.cpu.commit.op_class_0::SimdAlu              12      0.00%     71.52% # Class of committed instruction
system.cpu.commit.op_class_0::SimdCmp              12      0.00%     71.52% # Class of committed instruction
system.cpu.commit.op_class_0::SimdCvt               0      0.00%     71.52% # Class of committed instruction
system.cpu.commit.op_class_0::SimdMisc             15      0.00%     71.52% # Class of committed instruction
system.cpu.commit.op_class_0::SimdMult              0      0.00%     71.52% # Class of committed instruction
system.cpu.commit.op_class_0::SimdMultAcc            0      0.00%     71.52% # Class of committed instruction
system.cpu.commit.op_class_0::SimdShift             0      0.00%     71.52% # Class of committed instruction
system.cpu.commit.op_class_0::SimdShiftAcc            0      0.00%     71.52% # Class of committed instruction
system.cpu.commit.op_class_0::SimdDiv               0      0.00%     71.52% # Class of committed instruction
system.cpu.commit.op_class_0::SimdSqrt              0      0.00%     71.52% # Class of committed instruction
system.cpu.commit.op_class_0::SimdFloatAdd            0      0.00%     71.52% # Class of committed instruction
system.cpu.commit.op_class_0::SimdFloatAlu            0      0.00%     71.52% # Class of committed instruction
system.cpu.commit.op_class_0::SimdFloatCmp            0      0.00%     71.52% # Class of committed instruction
system.cpu.commit.op_class_0::SimdFloatCvt            0      0.00%     71.52% # Class of committed instruction
system.cpu.commit.op_class_0::SimdFloatDiv            0      0.00%     71.52% # Class of committed instruction
system.cpu.commit.op_class_0::SimdFloatMisc            0      0.00%     71.52% # Class of committed instruction
system.cpu.commit.op_class_0::SimdFloatMult            0      0.00%     71.52% # Class of committed instruction
system.cpu.commit.op_class_0::SimdFloatMultAcc            0      0.00%     71.52% # Class of committed instruction
system.cpu.commit.op_class_0::SimdFloatSqrt            0      0.00%     71.52% # Class of committed instruction
system.cpu.commit.op_class_0::SimdReduceAdd            0      0.00%     71.52% # Class of committed instruction
system.cpu.commit.op_class_0::SimdReduceAlu            0      0.00%     71.52% # Class of committed instruction
system.cpu.commit.op_class_0::SimdReduceCmp            0      0.00%     71.52% # Class of committed instruction
system.cpu.commit.op_class_0::SimdFloatReduceAdd            0      0.00%     71.52% # Class of committed instruction
system.cpu.commit.op_class_0::SimdFloatReduceCmp            0      0.00%     71.52% # Class of committed instruction
system.cpu.commit.op_class_0::SimdAes               0      0.00%     71.52% # Class of committed instruction
system.cpu.commit.op_class_0::SimdAesMix            0      0.00%     71.52% # Class of committed instruction
system.cpu.commit.op_class_0::SimdSha1Hash            0      0.00%     71.52% # Class of committed instruction
system.cpu.commit.op_class_0::SimdSha1Hash2            0      0.00%     71.52% # Class of committed instruction
system.cpu.commit.op_class_0::SimdSha256Hash            0      0.00%     71.52% # Class of committed instruction
system.cpu.commit.op_class_0::SimdSha256Hash2            0      0.00%     71.52% # Class of committed instruction
system.cpu.commit.op_class_0::SimdShaSigma2            0      0.00%     71.52% # Class of committed instruction
system.cpu.commit.op_class_0::SimdShaSigma3            0      0.00%     71.52% # Class of committed instruction
system.cpu.commit.op_class_0::SimdPredAlu            0      0.00%     71.52% # Class of committed instruction
system.cpu.commit.op_class_0::MemRead        33621209     28.42%     99.94% # Class of committed instruction
system.cpu.commit.op_class_0::MemWrite          67041      0.06%    100.00% # Class of committed instruction
system.cpu.commit.op_class_0::FloatMemRead            0      0.00%    100.00% # Class of committed instruction
system.cpu.commit.op_class_0::FloatMemWrite            0      0.00%    100.00% # Class of committed instruction
system.cpu.commit.op_class_0::IprAccess             0      0.00%    100.00% # Class of committed instruction
system.cpu.commit.op_class_0::InstPrefetch            0      0.00%    100.00% # Class of committed instruction
system.cpu.commit.op_class_0::total         118304270                       # Class of committed instruction
system.cpu.commit.refs                       33688250                       # Number of memory references committed
system.cpu.commit.swp_count                         0                       # Number of s/w prefetches committed
system.cpu.commit.vec_insts                  50462872                       # Number of committed Vector instructions.
system.cpu.committedInsts                   101459739                       # Number of Instructions Simulated
system.cpu.committedOps                     118238466                       # Number of Ops (including micro ops) Simulated
system.cpu.cpi                               1.149671                       # CPI: Cycles Per Instruction
system.cpu.cpi_total                         1.149671                       # CPI: Total CPI of All Threads
system.cpu.dcache.prefetcher.num_hwpf_issued       208538                       # number of hwpf issued
system.cpu.dcache.prefetcher.pfBufferHit     11960552                       # number of redundant prefetches already in prefetch queue
system.cpu.dcache.prefetcher.pfIdentified     24175238                       # number of prefetch candidates identified
system.cpu.dcache.prefetcher.pfInCache              0                       # number of redundant prefetches already in cache/mshr dropped
system.cpu.dcache.prefetcher.pfRemovedFull        30455                       # number of prefetches dropped due to prefetch queue size
system.cpu.dcache.prefetcher.pfSpanPage      41928754                       # number of prefetches that crossed the page
system.cpu.decode.BlockedCycles              62597556                       # Number of cycles decode is blocked
system.cpu.decode.BranchMispred                   224                       # Number of times decode detected a branch misprediction
system.cpu.decode.BranchResolved             16909155                       # Number of times decode resolved a branch
system.cpu.decode.DecodedInsts              119019100                       # Number of instructions handled by decode
system.cpu.decode.IdleCycles                 13549176                       # Number of cycles decode is idle
system.cpu.decode.RunCycles                  24631323                       # Number of cycles decode is running
system.cpu.decode.SquashCycles                  66385                       # Number of cycles decode is squashing
system.cpu.decode.SquashedInsts                230029                       # Number of squashed instructions handled by decode
system.cpu.decode.UnblockCycles              15760321                       # Number of cycles decode is unblocking
system.cpu.dtb.accesses                             0                       # DTB accesses
system.cpu.dtb.align_faults                         0                       # Number of TLB faults due to alignment restrictions
system.cpu.dtb.domain_faults                        0                       # Number of TLB faults due to domain restrictions
system.cpu.dtb.flush_entries                        0                       # Number of entries that have been flushed from TLB
system.cpu.dtb.flush_tlb                            0                       # Number of times complete TLB was flushed
system.cpu.dtb.flush_tlb_asid                       0                       # Number of times TLB was flushed by ASID
system.cpu.dtb.flush_tlb_mva                        0                       # Number of times TLB was flushed by MVA
system.cpu.dtb.flush_tlb_mva_asid                   0                       # Number of times TLB was flushed by MVA & ASID
system.cpu.dtb.hits                                 0                       # DTB hits
system.cpu.dtb.inst_accesses                        0                       # ITB inst accesses
system.cpu.dtb.inst_hits                            0                       # ITB inst hits
system.cpu.dtb.inst_misses                          0                       # ITB inst misses
system.cpu.dtb.misses                               0                       # DTB misses
system.cpu.dtb.perms_faults                         0                       # Number of TLB faults due to permissions restrictions
system.cpu.dtb.prefetch_faults                      0                       # Number of TLB faults due to prefetch
system.cpu.dtb.read_accesses                        0                       # DTB read accesses
system.cpu.dtb.read_hits                            0                       # DTB read hits
system.cpu.dtb.read_misses                          0                       # DTB read misses
system.cpu.dtb.stage2_mmu.stage2_tlb.accesses            0                       # DTB accesses
system.cpu.dtb.stage2_mmu.stage2_tlb.align_faults            0                       # Number of TLB faults due to alignment restrictions
system.cpu.dtb.stage2_mmu.stage2_tlb.domain_faults            0                       # Number of TLB faults due to domain restrictions
system.cpu.dtb.stage2_mmu.stage2_tlb.flush_entries            0                       # Number of entries that have been flushed from TLB
system.cpu.dtb.stage2_mmu.stage2_tlb.flush_tlb            0                       # Number of times complete TLB was flushed
system.cpu.dtb.stage2_mmu.stage2_tlb.flush_tlb_asid            0                       # Number of times TLB was flushed by ASID
system.cpu.dtb.stage2_mmu.stage2_tlb.flush_tlb_mva            0                       # Number of times TLB was flushed by MVA
system.cpu.dtb.stage2_mmu.stage2_tlb.flush_tlb_mva_asid            0                       # Number of times TLB was flushed by MVA & ASID
system.cpu.dtb.stage2_mmu.stage2_tlb.hits            0                       # DTB hits
system.cpu.dtb.stage2_mmu.stage2_tlb.inst_accesses            0                       # ITB inst accesses
system.cpu.dtb.stage2_mmu.stage2_tlb.inst_hits            0                       # ITB inst hits
system.cpu.dtb.stage2_mmu.stage2_tlb.inst_misses            0                       # ITB inst misses
system.cpu.dtb.stage2_mmu.stage2_tlb.misses            0                       # DTB misses
system.cpu.dtb.stage2_mmu.stage2_tlb.perms_faults            0                       # Number of TLB faults due to permissions restrictions
system.cpu.dtb.stage2_mmu.stage2_tlb.prefetch_faults            0                       # Number of TLB faults due to prefetch
system.cpu.dtb.stage2_mmu.stage2_tlb.read_accesses            0                       # DTB read accesses
system.cpu.dtb.stage2_mmu.stage2_tlb.read_hits            0                       # DTB read hits
system.cpu.dtb.stage2_mmu.stage2_tlb.read_misses            0                       # DTB read misses
system.cpu.dtb.stage2_mmu.stage2_tlb.walker.walkRequestOrigin_Requested::Data            0                       # Table walker requests started/completed, data/inst
system.cpu.dtb.stage2_mmu.stage2_tlb.walker.walkRequestOrigin_Requested::Inst            0                       # Table walker requests started/completed, data/inst
system.cpu.dtb.stage2_mmu.stage2_tlb.walker.walkRequestOrigin_Requested::total            0                       # Table walker requests started/completed, data/inst
system.cpu.dtb.stage2_mmu.stage2_tlb.walker.walkRequestOrigin_Completed::Data            0                       # Table walker requests started/completed, data/inst
system.cpu.dtb.stage2_mmu.stage2_tlb.walker.walkRequestOrigin_Completed::Inst            0                       # Table walker requests started/completed, data/inst
system.cpu.dtb.stage2_mmu.stage2_tlb.walker.walkRequestOrigin_Completed::total            0                       # Table walker requests started/completed, data/inst
system.cpu.dtb.stage2_mmu.stage2_tlb.walker.walkRequestOrigin::total            0                       # Table walker requests started/completed, data/inst
system.cpu.dtb.stage2_mmu.stage2_tlb.walker.walks            0                       # Table walker walks requested
system.cpu.dtb.stage2_mmu.stage2_tlb.write_accesses            0                       # DTB write accesses
system.cpu.dtb.stage2_mmu.stage2_tlb.write_hits            0                       # DTB write hits
system.cpu.dtb.stage2_mmu.stage2_tlb.write_misses            0                       # DTB write misses
system.cpu.dtb.walker.walkRequestOrigin_Requested::Data            0                       # Table walker requests started/completed, data/inst
system.cpu.dtb.walker.walkRequestOrigin_Requested::Inst            0                       # Table walker requests started/completed, data/inst
system.cpu.dtb.walker.walkRequestOrigin_Requested::total            0                       # Table walker requests started/completed, data/inst
system.cpu.dtb.walker.walkRequestOrigin_Completed::Data            0                       # Table walker requests started/completed, data/inst
system.cpu.dtb.walker.walkRequestOrigin_Completed::Inst            0                       # Table walker requests started/completed, data/inst
system.cpu.dtb.walker.walkRequestOrigin_Completed::total            0                       # Table walker requests started/completed, data/inst
system.cpu.dtb.walker.walkRequestOrigin::total            0                       # Table walker requests started/completed, data/inst
system.cpu.dtb.walker.walks                         0                       # Table walker walks requested
system.cpu.dtb.write_accesses                       0                       # DTB write accesses
system.cpu.dtb.write_hits                           0                       # DTB write hits
system.cpu.dtb.write_misses                         0                       # DTB write misses
system.cpu.fetch.Branches                    17283267                       # Number of branches that fetch encountered
system.cpu.fetch.CacheLines                  34638840                       # Number of cache lines fetched
system.cpu.fetch.Cycles                      81873916                       # Number of cycles fetch has run and was not squashing or blocked
system.cpu.fetch.IcacheSquashes                 26455                       # Number of outstanding Icache misses that were squashed
system.cpu.fetch.Insts                      103927930                       # Number of instructions fetch has processed
system.cpu.fetch.SquashCycles                  133202                       # Number of cycles fetch has spent squashing
system.cpu.fetch.branchRate                  0.148169                       # Number of branch fetches per cycle
system.cpu.fetch.icacheStallCycles           34664244                       # Number of cycles fetch is stalled on an Icache miss
system.cpu.fetch.predictedBranches           17214640                       # Number of branches that fetch has predicted taken
system.cpu.fetch.rate                        0.890974                       # Number of inst fetches per cycle
system.cpu.fetch.rateDist::samples          116604761                       # Number of instructions fetched each cycle (Total)
system.cpu.fetch.rateDist::mean              1.038722                       # Number of instructions fetched each cycle (Total)
system.cpu.fetch.rateDist::stdev             1.177251                       # Number of instructions fetched each cycle (Total)
system.cpu.fetch.rateDist::underflows               0      0.00%      0.00% # Number of instructions fetched each cycle (Total)
system.cpu.fetch.rateDist::0                 61240416     52.52%     52.52% # Number of instructions fetched each cycle (Total)
system.cpu.fetch.rateDist::1                  7000630      6.00%     58.52% # Number of instructions fetched each cycle (Total)
system.cpu.fetch.rateDist::2                 30971893     26.56%     85.08% # Number of instructions fetched each cycle (Total)
system.cpu.fetch.rateDist::3                 17391822     14.92%    100.00% # Number of instructions fetched each cycle (Total)
system.cpu.fetch.rateDist::overflows                0      0.00%    100.00% # Number of instructions fetched each cycle (Total)
system.cpu.fetch.rateDist::min_value                0                       # Number of instructions fetched each cycle (Total)
system.cpu.fetch.rateDist::max_value                3                       # Number of instructions fetched each cycle (Total)
system.cpu.fetch.rateDist::total            116604761                       # Number of instructions fetched each cycle (Total)
system.cpu.idleCycles                           40597                       # Total number of cycles that the CPU has spent unscheduled due to idling
system.cpu.iew.branchMispredicts                66401                       # Number of branch mispredicts detected at execute
system.cpu.iew.exec_branches                 16910646                       # Number of branches executed
system.cpu.iew.exec_nop                         65892                       # number of nop insts executed
system.cpu.iew.exec_rate                     1.368163                       # Inst execution rate
system.cpu.iew.exec_refs                     74946179                       # number of memory reference insts executed
system.cpu.iew.exec_stores                      67157                       # Number of stores executed
system.cpu.iew.exec_swp                             0                       # number of swp insts executed
system.cpu.iew.iewBlockCycles                     225                       # Number of cycles IEW is blocking
system.cpu.iew.iewDispLoadInsts              33729154                       # Number of dispatched load instructions
system.cpu.iew.iewDispNonSpecInsts                 90                       # Number of dispatched non-speculative instructions
system.cpu.iew.iewDispSquashedInsts                 0                       # Number of squashed instructions skipped by dispatch
system.cpu.iew.iewDispStoreInsts                67402                       # Number of dispatched store instructions
system.cpu.iew.iewDispatchedInsts           118571897                       # Number of instructions dispatched to IQ
system.cpu.iew.iewExecLoadInsts              74879022                       # Number of load instructions executed
system.cpu.iew.iewExecSquashedInsts             56573                       # Number of squashed instructions skipped in execute
system.cpu.iew.iewExecutedInsts             159589865                       # Number of executed instructions
system.cpu.iew.iewIQFullEvents                      0                       # Number of times the IQ has become full, causing a stall
system.cpu.iew.iewIdleCycles                        0                       # Number of cycles IEW is idle
system.cpu.iew.iewLSQFullEvents              14471805                       # Number of times the LSQ has become full, causing a stall
system.cpu.iew.iewSquashCycles                  66385                       # Number of cycles IEW is squashing
system.cpu.iew.iewUnblockCycles              14460826                       # Number of cycles IEW is unblocking
system.cpu.iew.lsq.thread0.blockedLoads             0                       # Number of blocked loads due to partial load-store forwarding
system.cpu.iew.lsq.thread0.cacheBlocked       4636796                       # Number of times an access to memory failed due to the cache being blocked
system.cpu.iew.lsq.thread0.forwLoads                6                       # Number of loads that had data forwarded from stores
system.cpu.iew.lsq.thread0.ignoredResponses            0                       # Number of memory responses ignored because the instruction is squashed
system.cpu.iew.lsq.thread0.invAddrLoads             0                       # Number of loads ignored due to an invalid address
system.cpu.iew.lsq.thread0.invAddrSwpfs             0                       # Number of software prefetches ignored due to an invalid address
system.cpu.iew.lsq.thread0.memOrderViolation            2                       # Number of memory ordering violations
system.cpu.iew.lsq.thread0.rescheduledLoads            6                       # Number of loads that were rescheduled
system.cpu.iew.lsq.thread0.squashedLoads       107945                       # Number of loads squashed
system.cpu.iew.lsq.thread0.squashedStores          361                       # Number of stores squashed
system.cpu.iew.memOrderViolationEvents              2                       # Number of memory order violations
system.cpu.iew.predictedNotTakenIncorrect          604                       # Number of branches that were predicted not taken incorrectly
system.cpu.iew.predictedTakenIncorrect          65797                       # Number of branches that were predicted taken incorrectly
system.cpu.iew.wb_consumers                 110381415                       # num instructions consuming a value
system.cpu.iew.wb_count                     118332126                       # cumulative count of insts written-back
system.cpu.iew.wb_fanout                     0.711725                       # average fanout of values written-back
system.cpu.iew.wb_producers                  78561203                       # num instructions producing a value
system.cpu.iew.wb_rate                       1.014461                       # insts written-back per cycle
system.cpu.iew.wb_sent                      118332237                       # cumulative count of insts sent to commit
system.cpu.int_regfile_reads                159933908                       # number of integer regfile reads
system.cpu.int_regfile_writes                50957664                       # number of integer regfile writes
system.cpu.ipc                               0.869814                       # IPC: Instructions Per Cycle
system.cpu.ipc_total                         0.869814                       # IPC: Total IPC of All Threads
system.cpu.iq.FU_type_0::No_OpClass                33      0.00%      0.00% # Type of FU issued
system.cpu.iq.FU_type_0::IntAlu              67895283     42.53%     42.53% # Type of FU issued
system.cpu.iq.FU_type_0::IntMult                    9      0.00%     42.53% # Type of FU issued
system.cpu.iq.FU_type_0::IntDiv                     3      0.00%     42.53% # Type of FU issued
system.cpu.iq.FU_type_0::FloatAdd                   0      0.00%     42.53% # Type of FU issued
system.cpu.iq.FU_type_0::FloatCmp                   0      0.00%     42.53% # Type of FU issued
system.cpu.iq.FU_type_0::FloatCvt                   2      0.00%     42.53% # Type of FU issued
system.cpu.iq.FU_type_0::FloatMult                  0      0.00%     42.53% # Type of FU issued
system.cpu.iq.FU_type_0::FloatMultAcc        16777216     10.51%     53.04% # Type of FU issued
system.cpu.iq.FU_type_0::FloatDiv                   2      0.00%     53.04% # Type of FU issued
system.cpu.iq.FU_type_0::FloatMisc                  2      0.00%     53.04% # Type of FU issued
system.cpu.iq.FU_type_0::FloatSqrt                  0      0.00%     53.04% # Type of FU issued
system.cpu.iq.FU_type_0::SimdAdd                   13      0.00%     53.04% # Type of FU issued
system.cpu.iq.FU_type_0::SimdAddAcc                 0      0.00%     53.04% # Type of FU issued
system.cpu.iq.FU_type_0::SimdAlu                   12      0.00%     53.04% # Type of FU issued
system.cpu.iq.FU_type_0::SimdCmp                   12      0.00%     53.04% # Type of FU issued
system.cpu.iq.FU_type_0::SimdCvt                    0      0.00%     53.04% # Type of FU issued
system.cpu.iq.FU_type_0::SimdMisc                  19      0.00%     53.04% # Type of FU issued
system.cpu.iq.FU_type_0::SimdMult                   0      0.00%     53.04% # Type of FU issued
system.cpu.iq.FU_type_0::SimdMultAcc                0      0.00%     53.04% # Type of FU issued
system.cpu.iq.FU_type_0::SimdShift                  0      0.00%     53.04% # Type of FU issued
system.cpu.iq.FU_type_0::SimdShiftAcc               0      0.00%     53.04% # Type of FU issued
system.cpu.iq.FU_type_0::SimdDiv                    0      0.00%     53.04% # Type of FU issued
system.cpu.iq.FU_type_0::SimdSqrt                   0      0.00%     53.04% # Type of FU issued
system.cpu.iq.FU_type_0::SimdFloatAdd               0      0.00%     53.04% # Type of FU issued
system.cpu.iq.FU_type_0::SimdFloatAlu               0      0.00%     53.04% # Type of FU issued
system.cpu.iq.FU_type_0::SimdFloatCmp               0      0.00%     53.04% # Type of FU issued
system.cpu.iq.FU_type_0::SimdFloatCvt               0      0.00%     53.04% # Type of FU issued
system.cpu.iq.FU_type_0::SimdFloatDiv               0      0.00%     53.04% # Type of FU issued
system.cpu.iq.FU_type_0::SimdFloatMisc              0      0.00%     53.04% # Type of FU issued
system.cpu.iq.FU_type_0::SimdFloatMult              0      0.00%     53.04% # Type of FU issued
system.cpu.iq.FU_type_0::SimdFloatMultAcc            0      0.00%     53.04% # Type of FU issued
system.cpu.iq.FU_type_0::SimdFloatSqrt              0      0.00%     53.04% # Type of FU issued
system.cpu.iq.FU_type_0::SimdReduceAdd              0      0.00%     53.04% # Type of FU issued
system.cpu.iq.FU_type_0::SimdReduceAlu              0      0.00%     53.04% # Type of FU issued
system.cpu.iq.FU_type_0::SimdReduceCmp              0      0.00%     53.04% # Type of FU issued
system.cpu.iq.FU_type_0::SimdFloatReduceAdd            0      0.00%     53.04% # Type of FU issued
system.cpu.iq.FU_type_0::SimdFloatReduceCmp            0      0.00%     53.04% # Type of FU issued
system.cpu.iq.FU_type_0::SimdAes                    0      0.00%     53.04% # Type of FU issued
system.cpu.iq.FU_type_0::SimdAesMix                 0      0.00%     53.04% # Type of FU issued
system.cpu.iq.FU_type_0::SimdSha1Hash               0      0.00%     53.04% # Type of FU issued
system.cpu.iq.FU_type_0::SimdSha1Hash2              0      0.00%     53.04% # Type of FU issued
system.cpu.iq.FU_type_0::SimdSha256Hash             0      0.00%     53.04% # Type of FU issued
system.cpu.iq.FU_type_0::SimdSha256Hash2            0      0.00%     53.04% # Type of FU issued
system.cpu.iq.FU_type_0::SimdShaSigma2              0      0.00%     53.04% # Type of FU issued
system.cpu.iq.FU_type_0::SimdShaSigma3              0      0.00%     53.04% # Type of FU issued
system.cpu.iq.FU_type_0::SimdPredAlu                0      0.00%     53.04% # Type of FU issued
system.cpu.iq.FU_type_0::MemRead             74906605     46.92%     99.96% # Type of FU issued
system.cpu.iq.FU_type_0::MemWrite               67227      0.04%    100.00% # Type of FU issued
system.cpu.iq.FU_type_0::FloatMemRead               0      0.00%    100.00% # Type of FU issued
system.cpu.iq.FU_type_0::FloatMemWrite              0      0.00%    100.00% # Type of FU issued
system.cpu.iq.FU_type_0::IprAccess                  0      0.00%    100.00% # Type of FU issued
system.cpu.iq.FU_type_0::InstPrefetch               0      0.00%    100.00% # Type of FU issued
system.cpu.iq.FU_type_0::total              159646438                       # Type of FU issued
system.cpu.iq.fp_alu_accesses                       0                       # Number of floating point alu accesses
system.cpu.iq.fp_inst_queue_reads                   0                       # Number of floating instruction queue reads
system.cpu.iq.fp_inst_queue_wakeup_accesses            0                       # Number of floating instruction queue wakeup accesses
system.cpu.iq.fp_inst_queue_writes                  0                       # Number of floating instruction queue writes
system.cpu.iq.fu_busy_cnt                    57743062                       # FU busy when requested
system.cpu.iq.fu_busy_rate                   0.361693                       # FU busy rate (busy events/executed inst)
system.cpu.iq.fu_full::No_OpClass                   0      0.00%      0.00% # attempts to use FU when none available
system.cpu.iq.fu_full::IntAlu                 2851981      4.94%      4.94% # attempts to use FU when none available
system.cpu.iq.fu_full::IntMult                      0      0.00%      4.94% # attempts to use FU when none available
system.cpu.iq.fu_full::IntDiv                       0      0.00%      4.94% # attempts to use FU when none available
system.cpu.iq.fu_full::FloatAdd                     0      0.00%      4.94% # attempts to use FU when none available
system.cpu.iq.fu_full::FloatCmp                     0      0.00%      4.94% # attempts to use FU when none available
system.cpu.iq.fu_full::FloatCvt                     0      0.00%      4.94% # attempts to use FU when none available
system.cpu.iq.fu_full::FloatMult                    0      0.00%      4.94% # attempts to use FU when none available
system.cpu.iq.fu_full::FloatMultAcc                 0      0.00%      4.94% # attempts to use FU when none available
system.cpu.iq.fu_full::FloatDiv                     0      0.00%      4.94% # attempts to use FU when none available
system.cpu.iq.fu_full::FloatMisc                    0      0.00%      4.94% # attempts to use FU when none available
system.cpu.iq.fu_full::FloatSqrt                    0      0.00%      4.94% # attempts to use FU when none available
system.cpu.iq.fu_full::SimdAdd                      0      0.00%      4.94% # attempts to use FU when none available
system.cpu.iq.fu_full::SimdAddAcc                   0      0.00%      4.94% # attempts to use FU when none available
system.cpu.iq.fu_full::SimdAlu                      1      0.00%      4.94% # attempts to use FU when none available
system.cpu.iq.fu_full::SimdCmp                      3      0.00%      4.94% # attempts to use FU when none available
system.cpu.iq.fu_full::SimdCvt                      0      0.00%      4.94% # attempts to use FU when none available
system.cpu.iq.fu_full::SimdMisc                     0      0.00%      4.94% # attempts to use FU when none available
system.cpu.iq.fu_full::SimdMult                     0      0.00%      4.94% # attempts to use FU when none available
system.cpu.iq.fu_full::SimdMultAcc                  0      0.00%      4.94% # attempts to use FU when none available
system.cpu.iq.fu_full::SimdShift                    0      0.00%      4.94% # attempts to use FU when none available
system.cpu.iq.fu_full::SimdShiftAcc                 0      0.00%      4.94% # attempts to use FU when none available
system.cpu.iq.fu_full::SimdDiv                      0      0.00%      4.94% # attempts to use FU when none available
system.cpu.iq.fu_full::SimdSqrt                     0      0.00%      4.94% # attempts to use FU when none available
system.cpu.iq.fu_full::SimdFloatAdd                 0      0.00%      4.94% # attempts to use FU when none available
system.cpu.iq.fu_full::SimdFloatAlu                 0      0.00%      4.94% # attempts to use FU when none available
system.cpu.iq.fu_full::SimdFloatCmp                 0      0.00%      4.94% # attempts to use FU when none available
system.cpu.iq.fu_full::SimdFloatCvt                 0      0.00%      4.94% # attempts to use FU when none available
system.cpu.iq.fu_full::SimdFloatDiv                 0      0.00%      4.94% # attempts to use FU when none available
system.cpu.iq.fu_full::SimdFloatMisc                0      0.00%      4.94% # attempts to use FU when none available
system.cpu.iq.fu_full::SimdFloatMult                0      0.00%      4.94% # attempts to use FU when none available
system.cpu.iq.fu_full::SimdFloatMultAcc             0      0.00%      4.94% # attempts to use FU when none available
system.cpu.iq.fu_full::SimdFloatSqrt                0      0.00%      4.94% # attempts to use FU when none available
system.cpu.iq.fu_full::SimdReduceAdd                0      0.00%      4.94% # attempts to use FU when none available
system.cpu.iq.fu_full::SimdReduceAlu                0      0.00%      4.94% # attempts to use FU when none available
system.cpu.iq.fu_full::SimdReduceCmp                0      0.00%      4.94% # attempts to use FU when none available
system.cpu.iq.fu_full::SimdFloatReduceAdd            0      0.00%      4.94% # attempts to use FU when none available
system.cpu.iq.fu_full::SimdFloatReduceCmp            0      0.00%      4.94% # attempts to use FU when none available
system.cpu.iq.fu_full::SimdAes                      0      0.00%      4.94% # attempts to use FU when none available
system.cpu.iq.fu_full::SimdAesMix                   0      0.00%      4.94% # attempts to use FU when none available
system.cpu.iq.fu_full::SimdSha1Hash                 0      0.00%      4.94% # attempts to use FU when none available
system.cpu.iq.fu_full::SimdSha1Hash2                0      0.00%      4.94% # attempts to use FU when none available
system.cpu.iq.fu_full::SimdSha256Hash               0      0.00%      4.94% # attempts to use FU when none available
system.cpu.iq.fu_full::SimdSha256Hash2              0      0.00%      4.94% # attempts to use FU when none available
system.cpu.iq.fu_full::SimdShaSigma2                0      0.00%      4.94% # attempts to use FU when none available
system.cpu.iq.fu_full::SimdShaSigma3                0      0.00%      4.94% # attempts to use FU when none available
system.cpu.iq.fu_full::SimdPredAlu                  0      0.00%      4.94% # attempts to use FU when none available
system.cpu.iq.fu_full::MemRead               54890346     95.06%    100.00% # attempts to use FU when none available
system.cpu.iq.fu_full::MemWrite                   731      0.00%    100.00% # attempts to use FU when none available
system.cpu.iq.fu_full::FloatMemRead                 0      0.00%    100.00% # attempts to use FU when none available
system.cpu.iq.fu_full::FloatMemWrite                0      0.00%    100.00% # attempts to use FU when none available
system.cpu.iq.fu_full::IprAccess                    0      0.00%    100.00% # attempts to use FU when none available
system.cpu.iq.fu_full::InstPrefetch                 0      0.00%    100.00% # attempts to use FU when none available
system.cpu.iq.int_alu_accesses               70751613                       # Number of integer alu accesses
system.cpu.iq.int_inst_queue_reads          255255283                       # Number of integer instruction queue reads
system.cpu.iq.int_inst_queue_wakeup_accesses     67869249                       # Number of integer instruction queue wakeup accesses
system.cpu.iq.int_inst_queue_writes          68057261                       # Number of integer instruction queue writes
system.cpu.iq.iqInstsAdded                  118505915                       # Number of instructions added to the IQ (excludes non-spec)
system.cpu.iq.iqInstsIssued                 159646438                       # Number of instructions issued
system.cpu.iq.iqNonSpecInstsAdded                  90                       # Number of non-speculative instructions added to the IQ
system.cpu.iq.iqSquashedInstsExamined          267538                       # Number of squashed instructions iterated over during squash; mainly for profiling
system.cpu.iq.iqSquashedInstsIssued             79898                       # Number of squashed instructions issued
system.cpu.iq.iqSquashedNonSpecRemoved             13                       # Number of squashed non-spec instructions that were removed
system.cpu.iq.iqSquashedOperandsExamined       490737                       # Number of squashed operands that are examined and possibly removed from graph
system.cpu.iq.issued_per_cycle::samples     116604761                       # Number of insts issued each cycle
system.cpu.iq.issued_per_cycle::mean         1.369125                       # Number of insts issued each cycle
system.cpu.iq.issued_per_cycle::stdev        1.054459                       # Number of insts issued each cycle
system.cpu.iq.issued_per_cycle::underflows            0      0.00%      0.00% # Number of insts issued each cycle
system.cpu.iq.issued_per_cycle::0            31017505     26.60%     26.60% # Number of insts issued each cycle
system.cpu.iq.issued_per_cycle::1            31477707     27.00%     53.60% # Number of insts issued each cycle
system.cpu.iq.issued_per_cycle::2            34441331     29.54%     83.13% # Number of insts issued each cycle
system.cpu.iq.issued_per_cycle::3            19386803     16.63%     99.76% # Number of insts issued each cycle
system.cpu.iq.issued_per_cycle::4              281415      0.24%    100.00% # Number of insts issued each cycle
system.cpu.iq.issued_per_cycle::5                   0      0.00%    100.00% # Number of insts issued each cycle
system.cpu.iq.issued_per_cycle::6                   0      0.00%    100.00% # Number of insts issued each cycle
system.cpu.iq.issued_per_cycle::7                   0      0.00%    100.00% # Number of insts issued each cycle
system.cpu.iq.issued_per_cycle::8                   0      0.00%    100.00% # Number of insts issued each cycle
system.cpu.iq.issued_per_cycle::overflows            0      0.00%    100.00% # Number of insts issued each cycle
system.cpu.iq.issued_per_cycle::min_value            0                       # Number of insts issued each cycle
system.cpu.iq.issued_per_cycle::max_value            4                       # Number of insts issued each cycle
system.cpu.iq.issued_per_cycle::total       116604761                       # Number of insts issued each cycle
system.cpu.iq.rate                           1.368648                       # Inst issue rate
system.cpu.iq.vec_alu_accesses              146637854                       # Number of vector alu accesses
system.cpu.iq.vec_inst_queue_reads          238465314                       # Number of vector instruction queue reads
system.cpu.iq.vec_inst_queue_wakeup_accesses     50462877                       # Number of vector instruction queue wakeup accesses
system.cpu.iq.vec_inst_queue_writes          50716284                       # Number of vector instruction queue writes
system.cpu.itb.accesses                             0                       # DTB accesses
system.cpu.itb.align_faults                         0                       # Number of TLB faults due to alignment restrictions
system.cpu.itb.domain_faults                        0                       # Number of TLB faults due to domain restrictions
system.cpu.itb.flush_entries                        0                       # Number of entries that have been flushed from TLB
system.cpu.itb.flush_tlb                            0                       # Number of times complete TLB was flushed
system.cpu.itb.flush_tlb_asid                       0                       # Number of times TLB was flushed by ASID
system.cpu.itb.flush_tlb_mva                        0                       # Number of times TLB was flushed by MVA
system.cpu.itb.flush_tlb_mva_asid                   0                       # Number of times TLB was flushed by MVA & ASID
system.cpu.itb.hits                                 0                       # DTB hits
system.cpu.itb.inst_accesses                        0                       # ITB inst accesses
system.cpu.itb.inst_hits                            0                       # ITB inst hits
system.cpu.itb.inst_misses                          0                       # ITB inst misses
system.cpu.itb.misses                               0                       # DTB misses
system.cpu.itb.perms_faults                         0                       # Number of TLB faults due to permissions restrictions
system.cpu.itb.prefetch_faults                      0                       # Number of TLB faults due to prefetch
system.cpu.itb.read_accesses                        0                       # DTB read accesses
system.cpu.itb.read_hits                            0                       # DTB read hits
system.cpu.itb.read_misses                          0                       # DTB read misses
system.cpu.itb.stage2_mmu.stage2_tlb.accesses            0                       # DTB accesses
system.cpu.itb.stage2_mmu.stage2_tlb.align_faults            0                       # Number of TLB faults due to alignment restrictions
system.cpu.itb.stage2_mmu.stage2_tlb.domain_faults            0                       # Number of TLB faults due to domain restrictions
system.cpu.itb.stage2_mmu.stage2_tlb.flush_entries            0                       # Number of entries that have been flushed from TLB
system.cpu.itb.stage2_mmu.stage2_tlb.flush_tlb            0                       # Number of times complete TLB was flushed
system.cpu.itb.stage2_mmu.stage2_tlb.flush_tlb_asid            0                       # Number of times TLB was flushed by ASID
system.cpu.itb.stage2_mmu.stage2_tlb.flush_tlb_mva            0                       # Number of times TLB was flushed by MVA
system.cpu.itb.stage2_mmu.stage2_tlb.flush_tlb_mva_asid            0                       # Number of times TLB was flushed by MVA & ASID
system.cpu.itb.stage2_mmu.stage2_tlb.hits            0                       # DTB hits
system.cpu.itb.stage2_mmu.stage2_tlb.inst_accesses            0                       # ITB inst accesses
system.cpu.itb.stage2_mmu.stage2_tlb.inst_hits            0                       # ITB inst hits
system.cpu.itb.stage2_mmu.stage2_tlb.inst_misses            0                       # ITB inst misses
system.cpu.itb.stage2_mmu.stage2_tlb.misses            0                       # DTB misses
system.cpu.itb.stage2_mmu.stage2_tlb.perms_faults            0                       # Number of TLB faults due to permissions restrictions
system.cpu.itb.stage2_mmu.stage2_tlb.prefetch_faults            0                       # Number of TLB faults due to prefetch
system.cpu.itb.stage2_mmu.stage2_tlb.read_accesses            0                       # DTB read accesses
system.cpu.itb.stage2_mmu.stage2_tlb.read_hits            0                       # DTB read hits
system.cpu.itb.stage2_mmu.stage2_tlb.read_misses            0                       # DTB read misses
system.cpu.itb.stage2_mmu.stage2_tlb.walker.walkRequestOrigin_Requested::Data            0                       # Table walker requests started/completed, data/inst
system.cpu.itb.stage2_mmu.stage2_tlb.walker.walkRequestOrigin_Requested::Inst            0                       # Table walker requests started/completed, data/inst
system.cpu.itb.stage2_mmu.stage2_tlb.walker.walkRequestOrigin_Requested::total            0                       # Table walker requests started/completed, data/inst
system.cpu.itb.stage2_mmu.stage2_tlb.walker.walkRequestOrigin_Completed::Data            0                       # Table walker requests started/completed, data/inst
system.cpu.itb.stage2_mmu.stage2_tlb.walker.walkRequestOrigin_Completed::Inst            0                       # Table walker requests started/completed, data/inst
system.cpu.itb.stage2_mmu.stage2_tlb.walker.walkRequestOrigin_Completed::total            0                       # Table walker requests started/completed, data/inst
system.cpu.itb.stage2_mmu.stage2_tlb.walker.walkRequestOrigin::total            0                       # Table walker requests started/completed, data/inst
system.cpu.itb.stage2_mmu.stage2_tlb.walker.walks            0                       # Table walker walks requested
system.cpu.itb.stage2_mmu.stage2_tlb.write_accesses            0                       # DTB write accesses
system.cpu.itb.stage2_mmu.stage2_tlb.write_hits            0                       # DTB write hits
system.cpu.itb.stage2_mmu.stage2_tlb.write_misses            0                       # DTB write misses
system.cpu.itb.walker.walkRequestOrigin_Requested::Data            0                       # Table walker requests started/completed, data/inst
system.cpu.itb.walker.walkRequestOrigin_Requested::Inst            0                       # Table walker requests started/completed, data/inst
system.cpu.itb.walker.walkRequestOrigin_Requested::total            0                       # Table walker requests started/completed, data/inst
system.cpu.itb.walker.walkRequestOrigin_Completed::Data            0                       # Table walker requests started/completed, data/inst
system.cpu.itb.walker.walkRequestOrigin_Completed::Inst            0                       # Table walker requests started/completed, data/inst
system.cpu.itb.walker.walkRequestOrigin_Completed::total            0                       # Table walker requests started/completed, data/inst
system.cpu.itb.walker.walkRequestOrigin::total            0                       # Table walker requests started/completed, data/inst
system.cpu.itb.walker.walks                         0                       # Table walker walks requested
system.cpu.itb.write_accesses                       0                       # DTB write accesses
system.cpu.itb.write_hits                           0                       # DTB write hits
system.cpu.itb.write_misses                         0                       # DTB write misses
system.cpu.memDep0.conflictingLoads                 0                       # Number of conflicting loads.
system.cpu.memDep0.conflictingStores                0                       # Number of conflicting stores.
system.cpu.memDep0.insertedLoads             33729154                       # Number of loads inserted to the mem dependence unit.
system.cpu.memDep0.insertedStores               67402                       # Number of stores inserted to the mem dependence unit.
system.cpu.misc_regfile_reads               478027763                       # number of misc regfile reads
system.cpu.misc_regfile_writes               16777287                       # number of misc regfile writes
system.cpu.numCycles                        116645358                       # number of cpu cycles simulated
system.cpu.numWorkItemsCompleted                    0                       # number of work items this cpu completed
system.cpu.numWorkItemsStarted                      0                       # number of work items this cpu started
system.cpu.rename.BlockCycles                16819204                       # Number of cycles rename is blocking
system.cpu.rename.CommittedMaps             168766901                       # Number of HB maps that are committed
system.cpu.rename.FullRegisterEvents               39                       # Number of times there has been no free registers
system.cpu.rename.IdleCycles                 21641113                       # Number of cycles rename is idle
system.cpu.rename.LQFullEvents               37899916                       # Number of times rename has blocked due to LQ full
system.cpu.rename.ROBFullEvents              32889113                       # Number of times rename has blocked due to ROB full
system.cpu.rename.RenameLookups             338270362                       # Number of register rename lookups that rename has made
system.cpu.rename.RenamedInsts              118655230                       # Number of instructions processed by rename
system.cpu.rename.RenamedOperands           169210184                       # Number of destination operands rename has renamed
system.cpu.rename.RunCycles                  31159373                       # Number of cycles rename is running
system.cpu.rename.SQFullEvents                   1084                       # Number of times rename has blocked due to SQ full
system.cpu.rename.SquashCycles                  66385                       # Number of cycles rename is squashing
system.cpu.rename.SquashedInsts                130063                       # Number of squashed instructions processed by rename
system.cpu.rename.UnblockCycles              46915596                       # Number of cycles rename is unblocking
system.cpu.rename.UndoneMaps                   443283                       # Number of HB maps that are undone due to squashing
system.cpu.rename.int_rename_lookups        118894708                       # Number of integer rename lookups
system.cpu.rename.serializeStallCycles           3090                       # count of cycles rename stalled for serializing inst
system.cpu.rename.serializingInsts                 66                       # count of serializing insts renamed
system.cpu.rename.skidInsts                  33071307                       # count of insts added to the skid buffer
system.cpu.rename.tempSerializingInsts             25                       # count of temporary serializing insts renamed
system.cpu.rename.vec_rename_lookups         50510648                       # Number of vector rename lookups
system.cpu.rob.rob_reads                    235029442                       # The number of ROB reads
system.cpu.rob.rob_writes                   237184606                       # The number of ROB writes
system.cpu.timesIdled                             373                       # Number of times that the entire CPU went into an idle state and unscheduled itself
system.cpu.vec_regfile_reads                 50397360                       # number of vector regfile reads
system.cpu.vec_regfile_writes                50397247                       # number of vector regfile writes
system.cpu.workload.numSyscalls                    16                       # Number of system calls
system.l2.prefetcher.num_hwpf_issued            11481                       # number of hwpf issued
system.l2.prefetcher.pfBufferHit                    3                       # number of redundant prefetches already in prefetch queue
system.l2.prefetcher.pfIdentified               11492                       # number of prefetch candidates identified
system.l2.prefetcher.pfInCache                      0                       # number of redundant prefetches already in cache/mshr dropped
system.l2.prefetcher.pfRemovedFull                  0                       # number of prefetches dropped due to prefetch queue size
system.l2.prefetcher.pfSpanPage                 14716                       # number of prefetches that crossed the page
system.membus.snoop_filter.hit_multi_requests            0                       # Number of requests hitting in the snoop filter with multiple (>1) holders of the requested data.
system.membus.snoop_filter.hit_multi_snoops            0                       # Number of snoops hitting in the snoop filter with multiple (>1) holders of the requested data.
system.membus.snoop_filter.hit_single_requests            0                       # Number of requests hitting in the snoop filter with a single holder of the requested data.
system.membus.snoop_filter.hit_single_snoops            0                       # Number of snoops hitting in the snoop filter with a single holder of the requested data.
system.membus.snoop_filter.tot_requests         13011                       # Total number of requests made to the snoop filter.
system.membus.snoop_filter.tot_snoops               0                       # Total number of snoops made to the snoop filter.
system.tol2bus.snoop_filter.hit_multi_requests            2                       # Number of requests hitting in the snoop filter with multiple (>1) holders of the requested data.
system.tol2bus.snoop_filter.hit_multi_snoops            0                       # Number of snoops hitting in the snoop filter with multiple (>1) holders of the requested data.
system.tol2bus.snoop_filter.hit_single_requests     16520181                       # Number of requests hitting in the snoop filter with a single holder of the requested data.
system.tol2bus.snoop_filter.hit_single_snoops            5                       # Number of snoops hitting in the snoop filter with a single holder of the requested data.
system.tol2bus.snoop_filter.tot_requests     33042745                       # Total number of requests made to the snoop filter.
system.tol2bus.snoop_filter.tot_snoops              5                       # Total number of snoops made to the snoop filter.
system.membus.pwrStateResidencyTicks::UNDEFINED  58322678500                       # Cumulative time (in ticks) in various power states
system.membus.trans_dist::ReadResp              12928                       # Transaction distribution
system.membus.trans_dist::ReadExReq                76                       # Transaction distribution
system.membus.trans_dist::ReadExResp               76                       # Transaction distribution
system.membus.trans_dist::ReadSharedReq         12928                       # Transaction distribution
system.membus.trans_dist::InvalidateReq             7                       # Transaction distribution
system.membus.pkt_count_system.l2.mem_side::system.mem_ctrls.port        26015                       # Packet count per connected master and slave (bytes)
system.membus.pkt_count::total                  26015                       # Packet count per connected master and slave (bytes)
system.membus.pkt_size_system.l2.mem_side::system.mem_ctrls.port       832256                       # Cumulative packet size per connected master and slave (bytes)
system.membus.pkt_size::total                  832256                       # Cumulative packet size per connected master and slave (bytes)
system.membus.snoops                                0                       # Total snoops (count)
system.membus.snoopTraffic                          0                       # Total snoop traffic (bytes)
system.membus.snoop_fanout::samples             13011                       # Request fanout histogram
system.membus.snoop_fanout::mean                    0                       # Request fanout histogram
system.membus.snoop_fanout::stdev                   0                       # Request fanout histogram
system.membus.snoop_fanout::underflows              0      0.00%      0.00% # Request fanout histogram
system.membus.snoop_fanout::0                   13011    100.00%    100.00% # Request fanout histogram
system.membus.snoop_fanout::1                       0      0.00%    100.00% # Request fanout histogram
system.membus.snoop_fanout::overflows               0      0.00%    100.00% # Request fanout histogram
system.membus.snoop_fanout::min_value               0                       # Request fanout histogram
system.membus.snoop_fanout::max_value               0                       # Request fanout histogram
system.membus.snoop_fanout::total               13011                       # Request fanout histogram
system.membus.respLayer1.occupancy           67106792                       # Layer occupancy (ticks)
system.membus.respLayer1.utilization              0.1                       # Layer utilization (%)
system.membus.reqLayer0.occupancy            15490564                       # Layer occupancy (ticks)
system.membus.reqLayer0.utilization               0.0                       # Layer utilization (%)
system.tol2bus.pwrStateResidencyTicks::UNDEFINED  58322678500                       # Cumulative time (in ticks) in various power states
system.tol2bus.trans_dist::ReadResp          16516614                       # Transaction distribution
system.tol2bus.trans_dist::WritebackDirty        77331                       # Transaction distribution
system.tol2bus.trans_dist::WritebackClean           99                       # Transaction distribution
system.tol2bus.trans_dist::CleanEvict        16442754                       # Transaction distribution
system.tol2bus.trans_dist::HardPFReq            10741                       # Transaction distribution
system.tol2bus.trans_dist::ReadExReq             5942                       # Transaction distribution
system.tol2bus.trans_dist::ReadExResp            5942                       # Transaction distribution
system.tol2bus.trans_dist::ReadCleanReq           434                       # Transaction distribution
system.tol2bus.trans_dist::ReadSharedReq     16516181                       # Transaction distribution
system.tol2bus.trans_dist::InvalidateReq            7                       # Transaction distribution
system.tol2bus.trans_dist::InvalidateResp            7                       # Transaction distribution
system.tol2bus.pkt_count_system.cpu.icache.mem_side::system.l2.cpu_side          966                       # Packet count per connected master and slave (bytes)
system.tol2bus.pkt_count_system.cpu.dcache.mem_side::system.l2.cpu_side     49564342                       # Packet count per connected master and slave (bytes)
system.tol2bus.pkt_count::total              49565308                       # Packet count per connected master and slave (bytes)
system.tol2bus.pkt_size_system.cpu.icache.mem_side::system.l2.cpu_side        34048                       # Cumulative packet size per connected master and slave (bytes)
system.tol2bus.pkt_size_system.cpu.dcache.mem_side::system.l2.cpu_side   1062365056                       # Cumulative packet size per connected master and slave (bytes)
system.tol2bus.pkt_size::total             1062399104                       # Cumulative packet size per connected master and slave (bytes)
system.tol2bus.snoops                           10744                       # Total snoops (count)
system.tol2bus.snoopTraffic                         0                       # Total snoop traffic (bytes)
system.tol2bus.snoop_fanout::samples         16533308                       # Request fanout histogram
system.tol2bus.snoop_fanout::mean            0.000000                       # Request fanout histogram
system.tol2bus.snoop_fanout::stdev           0.000651                       # Request fanout histogram
system.tol2bus.snoop_fanout::underflows             0      0.00%      0.00% # Request fanout histogram
system.tol2bus.snoop_fanout::0               16533301    100.00%    100.00% # Request fanout histogram
system.tol2bus.snoop_fanout::1                      7      0.00%    100.00% # Request fanout histogram
system.tol2bus.snoop_fanout::2                      0      0.00%    100.00% # Request fanout histogram
system.tol2bus.snoop_fanout::overflows              0      0.00%    100.00% # Request fanout histogram
system.tol2bus.snoop_fanout::min_value              0                       # Request fanout histogram
system.tol2bus.snoop_fanout::max_value              1                       # Request fanout histogram
system.tol2bus.snoop_fanout::total           16533308                       # Request fanout histogram
system.tol2bus.reqLayer0.occupancy        16649070349                       # Layer occupancy (ticks)
system.tol2bus.reqLayer0.utilization             28.5                       # Layer utilization (%)
system.tol2bus.respLayer1.occupancy       24783188000                       # Layer occupancy (ticks)
system.tol2bus.respLayer1.utilization            42.5                       # Layer utilization (%)
system.tol2bus.respLayer0.occupancy            649500                       # Layer occupancy (ticks)
system.tol2bus.respLayer0.utilization             0.0                       # Layer utilization (%)
system.voltage_domain.voltage                       1                       # Voltage in Volts
system.clk_domain.clock                          1000                       # Clock period in ticks
system.l2.pwrStateResidencyTicks::UNDEFINED  58322678500                       # Cumulative time (in ticks) in various power states
system.l2.demand_hits::.cpu.inst                   14                       # number of demand (read+write) hits
system.l2.demand_hits::.cpu.data             16411183                       # number of demand (read+write) hits
system.l2.demand_hits::.cpu.dcache.prefetcher       104180                       # number of demand (read+write) hits
system.l2.demand_hits::total                 16515377                       # number of demand (read+write) hits
system.l2.overall_hits::.cpu.inst                  14                       # number of overall hits
system.l2.overall_hits::.cpu.data            16411183                       # number of overall hits
system.l2.overall_hits::.cpu.dcache.prefetcher       104180                       # number of overall hits
system.l2.overall_hits::total                16515377                       # number of overall hits
system.l2.demand_misses::.cpu.inst                420                       # number of demand (read+write) misses
system.l2.demand_misses::.cpu.data               5711                       # number of demand (read+write) misses
system.l2.demand_misses::.cpu.dcache.prefetcher         1049                       # number of demand (read+write) misses
system.l2.demand_misses::total                   7180                       # number of demand (read+write) misses
system.l2.overall_misses::.cpu.inst               420                       # number of overall misses
system.l2.overall_misses::.cpu.data              5711                       # number of overall misses
system.l2.overall_misses::.cpu.dcache.prefetcher         1049                       # number of overall misses
system.l2.overall_misses::total                  7180                       # number of overall misses
system.l2.demand_miss_latency::.cpu.inst     33265000                       # number of demand (read+write) miss cycles
system.l2.demand_miss_latency::.cpu.data    445421500                       # number of demand (read+write) miss cycles
system.l2.demand_miss_latency::.cpu.dcache.prefetcher     88760112                       # number of demand (read+write) miss cycles
system.l2.demand_miss_latency::total        567446612                       # number of demand (read+write) miss cycles
system.l2.overall_miss_latency::.cpu.inst     33265000                       # number of overall miss cycles
system.l2.overall_miss_latency::.cpu.data    445421500                       # number of overall miss cycles
system.l2.overall_miss_latency::.cpu.dcache.prefetcher     88760112                       # number of overall miss cycles
system.l2.overall_miss_latency::total       567446612                       # number of overall miss cycles
system.l2.demand_accesses::.cpu.inst              434                       # number of demand (read+write) accesses
system.l2.demand_accesses::.cpu.data         16416894                       # number of demand (read+write) accesses
system.l2.demand_accesses::.cpu.dcache.prefetcher       105229                       # number of demand (read+write) accesses
system.l2.demand_accesses::total             16522557                       # number of demand (read+write) accesses
system.l2.overall_accesses::.cpu.inst             434                       # number of overall (read+write) accesses
system.l2.overall_accesses::.cpu.data        16416894                       # number of overall (read+write) accesses
system.l2.overall_accesses::.cpu.dcache.prefetcher       105229                       # number of overall (read+write) accesses
system.l2.overall_accesses::total            16522557                       # number of overall (read+write) accesses
system.l2.demand_miss_rate::.cpu.inst        0.967742                       # miss rate for demand accesses
system.l2.demand_miss_rate::.cpu.data        0.000348                       # miss rate for demand accesses
system.l2.demand_miss_rate::.cpu.dcache.prefetcher     0.009969                       # miss rate for demand accesses
system.l2.demand_miss_rate::total            0.000435                       # miss rate for demand accesses
system.l2.overall_miss_rate::.cpu.inst       0.967742                       # miss rate for overall accesses
system.l2.overall_miss_rate::.cpu.data       0.000348                       # miss rate for overall accesses
system.l2.overall_miss_rate::.cpu.dcache.prefetcher     0.009969                       # miss rate for overall accesses
system.l2.overall_miss_rate::total           0.000435                       # miss rate for overall accesses
system.l2.demand_avg_miss_latency::.cpu.inst 79202.380952                       # average overall miss latency
system.l2.demand_avg_miss_latency::.cpu.data 77993.608825                       # average overall miss latency
system.l2.demand_avg_miss_latency::.cpu.dcache.prefetcher 84614.024786                       # average overall miss latency
system.l2.demand_avg_miss_latency::total 79031.561560                       # average overall miss latency
system.l2.overall_avg_miss_latency::.cpu.inst 79202.380952                       # average overall miss latency
system.l2.overall_avg_miss_latency::.cpu.data 77993.608825                       # average overall miss latency
system.l2.overall_avg_miss_latency::.cpu.dcache.prefetcher 84614.024786                       # average overall miss latency
system.l2.overall_avg_miss_latency::total 79031.561560                       # average overall miss latency
system.l2.blocked_cycles::no_mshrs                  0                       # number of cycles access was blocked
system.l2.blocked_cycles::no_targets                0                       # number of cycles access was blocked
system.l2.blocked::no_mshrs                         0                       # number of cycles access was blocked
system.l2.blocked::no_targets                       0                       # number of cycles access was blocked
system.l2.avg_blocked_cycles::no_mshrs            nan                       # average number of cycles each access was blocked
system.l2.avg_blocked_cycles::no_targets          nan                       # average number of cycles each access was blocked
system.l2.demand_mshr_hits::.cpu.data            1007                       # number of demand (read+write) MSHR hits
system.l2.demand_mshr_hits::.cpu.dcache.prefetcher           81                       # number of demand (read+write) MSHR hits
system.l2.demand_mshr_hits::total                1088                       # number of demand (read+write) MSHR hits
system.l2.overall_mshr_hits::.cpu.data           1007                       # number of overall MSHR hits
system.l2.overall_mshr_hits::.cpu.dcache.prefetcher           81                       # number of overall MSHR hits
system.l2.overall_mshr_hits::total               1088                       # number of overall MSHR hits
system.l2.demand_mshr_misses::.cpu.inst           420                       # number of demand (read+write) MSHR misses
system.l2.demand_mshr_misses::.cpu.data          4704                       # number of demand (read+write) MSHR misses
system.l2.demand_mshr_misses::.cpu.dcache.prefetcher          968                       # number of demand (read+write) MSHR misses
system.l2.demand_mshr_misses::total              6092                       # number of demand (read+write) MSHR misses
system.l2.overall_mshr_misses::.cpu.inst          420                       # number of overall MSHR misses
system.l2.overall_mshr_misses::.cpu.data         4704                       # number of overall MSHR misses
system.l2.overall_mshr_misses::.cpu.dcache.prefetcher          968                       # number of overall MSHR misses
system.l2.overall_mshr_misses::.l2.prefetcher         6913                       # number of overall MSHR misses
system.l2.overall_mshr_misses::total            13005                       # number of overall MSHR misses
system.l2.demand_mshr_miss_latency::.cpu.inst     29075000                       # number of demand (read+write) MSHR miss cycles
system.l2.demand_mshr_miss_latency::.cpu.data    348112000                       # number of demand (read+write) MSHR miss cycles
system.l2.demand_mshr_miss_latency::.cpu.dcache.prefetcher     74566739                       # number of demand (read+write) MSHR miss cycles
system.l2.demand_mshr_miss_latency::total    451753739                       # number of demand (read+write) MSHR miss cycles
system.l2.overall_mshr_miss_latency::.cpu.inst     29075000                       # number of overall MSHR miss cycles
system.l2.overall_mshr_miss_latency::.cpu.data    348112000                       # number of overall MSHR miss cycles
system.l2.overall_mshr_miss_latency::.cpu.dcache.prefetcher     74566739                       # number of overall MSHR miss cycles
system.l2.overall_mshr_miss_latency::.l2.prefetcher    459324045                       # number of overall MSHR miss cycles
system.l2.overall_mshr_miss_latency::total    911077784                       # number of overall MSHR miss cycles
system.l2.demand_mshr_miss_rate::.cpu.inst     0.967742                       # mshr miss rate for demand accesses
system.l2.demand_mshr_miss_rate::.cpu.data     0.000287                       # mshr miss rate for demand accesses
system.l2.demand_mshr_miss_rate::.cpu.dcache.prefetcher     0.009199                       # mshr miss rate for demand accesses
system.l2.demand_mshr_miss_rate::total       0.000369                       # mshr miss rate for demand accesses
system.l2.overall_mshr_miss_rate::.cpu.inst     0.967742                       # mshr miss rate for overall accesses
system.l2.overall_mshr_miss_rate::.cpu.data     0.000287                       # mshr miss rate for overall accesses
system.l2.overall_mshr_miss_rate::.cpu.dcache.prefetcher     0.009199                       # mshr miss rate for overall accesses
system.l2.overall_mshr_miss_rate::.l2.prefetcher          inf                       # mshr miss rate for overall accesses
system.l2.overall_mshr_miss_rate::total      0.000787                       # mshr miss rate for overall accesses
system.l2.demand_avg_mshr_miss_latency::.cpu.inst 69226.190476                       # average overall mshr miss latency
system.l2.demand_avg_mshr_miss_latency::.cpu.data 74003.401361                       # average overall mshr miss latency
system.l2.demand_avg_mshr_miss_latency::.cpu.dcache.prefetcher 77031.755165                       # average overall mshr miss latency
system.l2.demand_avg_mshr_miss_latency::total 74155.242777                       # average overall mshr miss latency
system.l2.overall_avg_mshr_miss_latency::.cpu.inst 69226.190476                       # average overall mshr miss latency
system.l2.overall_avg_mshr_miss_latency::.cpu.data 74003.401361                       # average overall mshr miss latency
system.l2.overall_avg_mshr_miss_latency::.cpu.dcache.prefetcher 77031.755165                       # average overall mshr miss latency
system.l2.overall_avg_mshr_miss_latency::.l2.prefetcher 66443.518733                       # average overall mshr miss latency
system.l2.overall_avg_mshr_miss_latency::total 70055.961861                       # average overall mshr miss latency
system.l2.replacements                              3                       # number of replacements
system.l2.WritebackDirty_hits::.writebacks        77331                       # number of WritebackDirty hits
system.l2.WritebackDirty_hits::total            77331                       # number of WritebackDirty hits
system.l2.WritebackDirty_accesses::.writebacks        77331                       # number of WritebackDirty accesses(hits+misses)
system.l2.WritebackDirty_accesses::total        77331                       # number of WritebackDirty accesses(hits+misses)
system.l2.WritebackClean_hits::.writebacks           98                       # number of WritebackClean hits
system.l2.WritebackClean_hits::total               98                       # number of WritebackClean hits
system.l2.WritebackClean_accesses::.writebacks           98                       # number of WritebackClean accesses(hits+misses)
system.l2.WritebackClean_accesses::total           98                       # number of WritebackClean accesses(hits+misses)
[...]
system.cpu.dcache.demand_mshr_misses::total     16416899                       # number of demand (read+write) MSHR misses
system.cpu.dcache.overall_mshr_misses::.cpu.data     16416899                       # number of overall MSHR misses
system.cpu.dcache.overall_mshr_misses::.cpu.dcache.prefetcher       105229                       # number of overall MSHR misses
system.cpu.dcache.overall_mshr_misses::total     16522128                       # number of overall MSHR misses
system.cpu.dcache.demand_mshr_miss_latency::.cpu.data 208873883300                       # number of demand (read+write) MSHR miss cycles
system.cpu.dcache.demand_mshr_miss_latency::total 208873883300                       # number of demand (read+write) MSHR miss cycles
system.cpu.dcache.overall_mshr_miss_latency::.cpu.data 208873883300                       # number of overall MSHR miss cycles
system.cpu.dcache.overall_mshr_miss_latency::.cpu.dcache.prefetcher   1341031241                       # number of overall MSHR miss cycles
system.cpu.dcache.overall_mshr_miss_latency::total 210214914541                       # number of overall MSHR miss cycles
system.cpu.dcache.demand_mshr_miss_rate::.cpu.data     0.487313                       # mshr miss rate for demand accesses
system.cpu.dcache.demand_mshr_miss_rate::total     0.487313                       # mshr miss rate for demand accesses
system.cpu.dcache.overall_mshr_miss_rate::.cpu.data     0.487313                       # mshr miss rate for overall accesses
system.cpu.dcache.overall_mshr_miss_rate::.cpu.dcache.prefetcher          inf                       # mshr miss rate for overall accesses
system.cpu.dcache.overall_mshr_miss_rate::total     0.490437                       # mshr miss rate for overall accesses
system.cpu.dcache.demand_avg_mshr_miss_latency::.cpu.data 12723.102171                       # average overall mshr miss latency
system.cpu.dcache.demand_avg_mshr_miss_latency::total 12723.102171                       # average overall mshr miss latency
system.cpu.dcache.overall_avg_mshr_miss_latency::.cpu.data 12723.102171                       # average overall mshr miss latency
system.cpu.dcache.overall_avg_mshr_miss_latency::.cpu.dcache.prefetcher 12743.932195                       # average overall mshr miss latency
system.cpu.dcache.overall_avg_mshr_miss_latency::total 12723.234836                       # average overall mshr miss latency
system.cpu.dcache.replacements               16520082                       # number of replacements
system.cpu.dcache.ReadReq_hits::.cpu.data     17091705                       # number of ReadReq hits
system.cpu.dcache.ReadReq_hits::total        17091705                       # number of ReadReq hits
system.cpu.dcache.ReadReq_misses::.cpu.data     16529880                       # number of ReadReq misses
system.cpu.dcache.ReadReq_misses::total      16529880                       # number of ReadReq misses
system.cpu.dcache.ReadReq_miss_latency::.cpu.data 226388370500                       # number of ReadReq miss cycles
system.cpu.dcache.ReadReq_miss_latency::total 226388370500                       # number of ReadReq miss cycles
system.cpu.dcache.ReadReq_accesses::.cpu.data     33621585                       # number of ReadReq accesses(hits+misses)
system.cpu.dcache.ReadReq_accesses::total     33621585                       # number of ReadReq accesses(hits+misses)
system.cpu.dcache.ReadReq_miss_rate::.cpu.data     0.491645                       # miss rate for ReadReq accesses
system.cpu.dcache.ReadReq_miss_rate::total     0.491645                       # miss rate for ReadReq accesses
system.cpu.dcache.ReadReq_avg_miss_latency::.cpu.data 13695.705625                       # average ReadReq miss latency
system.cpu.dcache.ReadReq_avg_miss_latency::total 13695.705625                       # average ReadReq miss latency
system.cpu.dcache.ReadReq_mshr_hits::.cpu.data       118929                       # number of ReadReq MSHR hits
system.cpu.dcache.ReadReq_mshr_hits::total       118929                       # number of ReadReq MSHR hits
system.cpu.dcache.ReadReq_mshr_misses::.cpu.data     16410951                       # number of ReadReq MSHR misses
system.cpu.dcache.ReadReq_mshr_misses::total     16410951                       # number of ReadReq MSHR misses
system.cpu.dcache.ReadReq_mshr_miss_latency::.cpu.data 208771760000                       # number of ReadReq MSHR miss cycles
system.cpu.dcache.ReadReq_mshr_miss_latency::total 208771760000                       # number of ReadReq MSHR miss cycles
system.cpu.dcache.ReadReq_mshr_miss_rate::.cpu.data     0.488108                       # mshr miss rate for ReadReq accesses
system.cpu.dcache.ReadReq_mshr_miss_rate::total     0.488108                       # mshr miss rate for ReadReq accesses
system.cpu.dcache.ReadReq_avg_mshr_miss_latency::.cpu.data 12721.490668                       # average ReadReq mshr miss latency
system.cpu.dcache.ReadReq_avg_mshr_miss_latency::total 12721.490668                       # average ReadReq mshr miss latency
system.cpu.dcache.WriteReq_hits::.cpu.data        60609                       # number of WriteReq hits
system.cpu.dcache.WriteReq_hits::total          60609                       # number of WriteReq hits
system.cpu.dcache.WriteReq_misses::.cpu.data         6395                       # number of WriteReq misses
system.cpu.dcache.WriteReq_misses::total         6395                       # number of WriteReq misses
system.cpu.dcache.WriteReq_miss_latency::.cpu.data    128027722                       # number of WriteReq miss cycles
system.cpu.dcache.WriteReq_miss_latency::total    128027722                       # number of WriteReq miss cycles
system.cpu.dcache.WriteReq_accesses::.cpu.data        67004                       # number of WriteReq accesses(hits+misses)
system.cpu.dcache.WriteReq_accesses::total        67004                       # number of WriteReq accesses(hits+misses)
system.cpu.dcache.WriteReq_miss_rate::.cpu.data     0.095442                       # miss rate for WriteReq accesses
system.cpu.dcache.WriteReq_miss_rate::total     0.095442                       # miss rate for WriteReq accesses
system.cpu.dcache.WriteReq_avg_miss_latency::.cpu.data 20019.972166                       # average WriteReq miss latency
system.cpu.dcache.WriteReq_avg_miss_latency::total 20019.972166                       # average WriteReq miss latency
system.cpu.dcache.WriteReq_mshr_hits::.cpu.data          454                       # number of WriteReq MSHR hits
system.cpu.dcache.WriteReq_mshr_hits::total          454                       # number of WriteReq MSHR hits
system.cpu.dcache.WriteReq_mshr_misses::.cpu.data         5941                       # number of WriteReq MSHR misses
system.cpu.dcache.WriteReq_mshr_misses::total         5941                       # number of WriteReq MSHR misses
system.cpu.dcache.WriteReq_mshr_miss_latency::.cpu.data    101908303                       # number of WriteReq MSHR miss cycles
system.cpu.dcache.WriteReq_mshr_miss_latency::total    101908303                       # number of WriteReq MSHR miss cycles
system.cpu.dcache.WriteReq_mshr_miss_rate::.cpu.data     0.088666                       # mshr miss rate for WriteReq accesses
system.cpu.dcache.WriteReq_mshr_miss_rate::total     0.088666                       # mshr miss rate for WriteReq accesses
system.cpu.dcache.WriteReq_avg_mshr_miss_latency::.cpu.data 17153.392190                       # average WriteReq mshr miss latency
system.cpu.dcache.WriteReq_avg_mshr_miss_latency::total 17153.392190                       # average WriteReq mshr miss latency
system.cpu.dcache.HardPFReq_mshr_misses::.cpu.dcache.prefetcher       105229                       # number of HardPFReq MSHR misses
system.cpu.dcache.HardPFReq_mshr_misses::total       105229                       # number of HardPFReq MSHR misses
system.cpu.dcache.HardPFReq_mshr_miss_latency::.cpu.dcache.prefetcher   1341031241                       # number of HardPFReq MSHR miss cycles
system.cpu.dcache.HardPFReq_mshr_miss_latency::total   1341031241                       # number of HardPFReq MSHR miss cycles
system.cpu.dcache.HardPFReq_mshr_miss_rate::.cpu.dcache.prefetcher          inf                       # mshr miss rate for HardPFReq accesses
system.cpu.dcache.HardPFReq_mshr_miss_rate::total          inf                       # mshr miss rate for HardPFReq accesses
system.cpu.dcache.HardPFReq_avg_mshr_miss_latency::.cpu.dcache.prefetcher 12743.932195                       # average HardPFReq mshr miss latency
system.cpu.dcache.HardPFReq_avg_mshr_miss_latency::total 12743.932195                       # average HardPFReq mshr miss latency
system.cpu.dcache.WriteLineReq_misses::.cpu.data            7                       # number of WriteLineReq misses
system.cpu.dcache.WriteLineReq_misses::total            7                       # number of WriteLineReq misses
system.cpu.dcache.WriteLineReq_miss_latency::.cpu.data       221997                       # number of WriteLineReq miss cycles
system.cpu.dcache.WriteLineReq_miss_latency::total       221997                       # number of WriteLineReq miss cycles
system.cpu.dcache.WriteLineReq_accesses::.cpu.data            7                       # number of WriteLineReq accesses(hits+misses)
system.cpu.dcache.WriteLineReq_accesses::total            7                       # number of WriteLineReq accesses(hits+misses)
system.cpu.dcache.WriteLineReq_miss_rate::.cpu.data            1                       # miss rate for WriteLineReq accesses
system.cpu.dcache.WriteLineReq_miss_rate::total            1                       # miss rate for WriteLineReq accesses
system.cpu.dcache.WriteLineReq_avg_miss_latency::.cpu.data 31713.857143                       # average WriteLineReq miss latency
system.cpu.dcache.WriteLineReq_avg_miss_latency::total 31713.857143                       # average WriteLineReq miss latency
system.cpu.dcache.WriteLineReq_mshr_misses::.cpu.data            7                       # number of WriteLineReq MSHR misses
system.cpu.dcache.WriteLineReq_mshr_misses::total            7                       # number of WriteLineReq MSHR misses
system.cpu.dcache.WriteLineReq_mshr_miss_latency::.cpu.data       214997                       # number of WriteLineReq MSHR miss cycles
system.cpu.dcache.WriteLineReq_mshr_miss_latency::total       214997                       # number of WriteLineReq MSHR miss cycles
system.cpu.dcache.WriteLineReq_mshr_miss_rate::.cpu.data            1                       # mshr miss rate for WriteLineReq accesses
system.cpu.dcache.WriteLineReq_mshr_miss_rate::total            1                       # mshr miss rate for WriteLineReq accesses
system.cpu.dcache.WriteLineReq_avg_mshr_miss_latency::.cpu.data 30713.857143                       # average WriteLineReq mshr miss latency
system.cpu.dcache.WriteLineReq_avg_mshr_miss_latency::total 30713.857143                       # average WriteLineReq mshr miss latency
system.cpu.dcache.LoadLockedReq_hits::.cpu.data            3                       # number of LoadLockedReq hits
system.cpu.dcache.LoadLockedReq_hits::total            3                       # number of LoadLockedReq hits
system.cpu.dcache.LoadLockedReq_misses::.cpu.data            1                       # number of LoadLockedReq misses
system.cpu.dcache.LoadLockedReq_misses::total            1                       # number of LoadLockedReq misses
system.cpu.dcache.LoadLockedReq_miss_latency::.cpu.data        76000                       # number of LoadLockedReq miss cycles
system.cpu.dcache.LoadLockedReq_miss_latency::total        76000                       # number of LoadLockedReq miss cycles
system.cpu.dcache.LoadLockedReq_accesses::.cpu.data            4                       # number of LoadLockedReq accesses(hits+misses)
system.cpu.dcache.LoadLockedReq_accesses::total            4                       # number of LoadLockedReq accesses(hits+misses)
system.cpu.dcache.LoadLockedReq_miss_rate::.cpu.data     0.250000                       # miss rate for LoadLockedReq accesses
system.cpu.dcache.LoadLockedReq_miss_rate::total     0.250000                       # miss rate for LoadLockedReq accesses
system.cpu.dcache.LoadLockedReq_avg_miss_latency::.cpu.data        76000                       # average LoadLockedReq miss latency
system.cpu.dcache.LoadLockedReq_avg_miss_latency::total        76000                       # average LoadLockedReq miss latency
system.cpu.dcache.LoadLockedReq_mshr_misses::.cpu.data            1                       # number of LoadLockedReq MSHR misses
system.cpu.dcache.LoadLockedReq_mshr_misses::total            1                       # number of LoadLockedReq MSHR misses
system.cpu.dcache.LoadLockedReq_mshr_miss_latency::.cpu.data        75000                       # number of LoadLockedReq MSHR miss cycles
system.cpu.dcache.LoadLockedReq_mshr_miss_latency::total        75000                       # number of LoadLockedReq MSHR miss cycles
system.cpu.dcache.LoadLockedReq_mshr_miss_rate::.cpu.data     0.250000                       # mshr miss rate for LoadLockedReq accesses
system.cpu.dcache.LoadLockedReq_mshr_miss_rate::total     0.250000                       # mshr miss rate for LoadLockedReq accesses
system.cpu.dcache.LoadLockedReq_avg_mshr_miss_latency::.cpu.data        75000                       # average LoadLockedReq mshr miss latency
system.cpu.dcache.LoadLockedReq_avg_mshr_miss_latency::total        75000                       # average LoadLockedReq mshr miss latency
system.cpu.dcache.StoreCondReq_hits::.cpu.data            4                       # number of StoreCondReq hits
system.cpu.dcache.StoreCondReq_hits::total            4                       # number of StoreCondReq hits
system.cpu.dcache.StoreCondReq_accesses::.cpu.data            4                       # number of StoreCondReq accesses(hits+misses)
system.cpu.dcache.StoreCondReq_accesses::total            4                       # number of StoreCondReq accesses(hits+misses)
system.cpu.dcache.SwapReq_hits::.cpu.data           24                       # number of SwapReq hits
system.cpu.dcache.SwapReq_hits::total              24                       # number of SwapReq hits
system.cpu.dcache.SwapReq_misses::.cpu.data            2                       # number of SwapReq misses
system.cpu.dcache.SwapReq_misses::total             2                       # number of SwapReq misses
system.cpu.dcache.SwapReq_miss_latency::.cpu.data        80500                       # number of SwapReq miss cycles
system.cpu.dcache.SwapReq_miss_latency::total        80500                       # number of SwapReq miss cycles
system.cpu.dcache.SwapReq_accesses::.cpu.data           26                       # number of SwapReq accesses(hits+misses)
system.cpu.dcache.SwapReq_accesses::total           26                       # number of SwapReq accesses(hits+misses)
system.cpu.dcache.SwapReq_miss_rate::.cpu.data     0.076923                       # miss rate for SwapReq accesses
system.cpu.dcache.SwapReq_miss_rate::total     0.076923                       # miss rate for SwapReq accesses
system.cpu.dcache.SwapReq_avg_miss_latency::.cpu.data        40250                       # average SwapReq miss latency
system.cpu.dcache.SwapReq_avg_miss_latency::total        40250                       # average SwapReq miss latency
system.cpu.dcache.SwapReq_mshr_hits::.cpu.data            1                       # number of SwapReq MSHR hits
system.cpu.dcache.SwapReq_mshr_hits::total            1                       # number of SwapReq MSHR hits
system.cpu.dcache.SwapReq_mshr_misses::.cpu.data            1                       # number of SwapReq MSHR misses
system.cpu.dcache.SwapReq_mshr_misses::total            1                       # number of SwapReq MSHR misses
system.cpu.dcache.SwapReq_mshr_miss_latency::.cpu.data        12000                       # number of SwapReq MSHR miss cycles
system.cpu.dcache.SwapReq_mshr_miss_latency::total        12000                       # number of SwapReq MSHR miss cycles
system.cpu.dcache.SwapReq_mshr_miss_rate::.cpu.data     0.038462                       # mshr miss rate for SwapReq accesses
system.cpu.dcache.SwapReq_mshr_miss_rate::total     0.038462                       # mshr miss rate for SwapReq accesses
system.cpu.dcache.SwapReq_avg_mshr_miss_latency::.cpu.data        12000                       # average SwapReq mshr miss latency
system.cpu.dcache.SwapReq_avg_mshr_miss_latency::total        12000                       # average SwapReq mshr miss latency
system.cpu.dcache.prefetcher.pwrStateResidencyTicks::UNDEFINED  58322678500                       # Cumulative time (in ticks) in various power states
system.cpu.dcache.tags.pwrStateResidencyTicks::UNDEFINED  58322678500                       # Cumulative time (in ticks) in various power states
system.cpu.dcache.tags.tagsinuse          2043.392327                       # Cycle average of tags in use
system.cpu.dcache.tags.total_refs            33674475                       # Total number of references to valid blocks.
system.cpu.dcache.tags.sampled_refs          16522130                       # Sample count of references to valid blocks.
system.cpu.dcache.tags.avg_refs              2.038144                       # Average number of references to valid blocks.
system.cpu.dcache.tags.warmup_cycle            178500                       # Cycle when the warmup percentage was hit.
system.cpu.dcache.tags.occ_blocks::.cpu.data  1843.234296                       # Average occupied blocks per requestor
system.cpu.dcache.tags.occ_blocks::.cpu.dcache.prefetcher   200.158031                       # Average occupied blocks per requestor
system.cpu.dcache.tags.occ_percent::.cpu.data     0.900017                       # Average percentage of cache occupancy
system.cpu.dcache.tags.occ_percent::.cpu.dcache.prefetcher     0.097733                       # Average percentage of cache occupancy
system.cpu.dcache.tags.occ_percent::total     0.997750                       # Average percentage of cache occupancy
system.cpu.dcache.tags.occ_task_id_blocks::1022          214                       # Occupied blocks per task id
system.cpu.dcache.tags.occ_task_id_blocks::1024         1834                       # Occupied blocks per task id
system.cpu.dcache.tags.age_task_id_blocks_1022::0           23                       # Occupied blocks per task id
system.cpu.dcache.tags.age_task_id_blocks_1022::1           14                       # Occupied blocks per task id
system.cpu.dcache.tags.age_task_id_blocks_1022::2            3                       # Occupied blocks per task id
system.cpu.dcache.tags.age_task_id_blocks_1022::4          174                       # Occupied blocks per task id
system.cpu.dcache.tags.age_task_id_blocks_1024::0          129                       # Occupied blocks per task id
system.cpu.dcache.tags.age_task_id_blocks_1024::1          391                       # Occupied blocks per task id
system.cpu.dcache.tags.age_task_id_blocks_1024::2          464                       # Occupied blocks per task id
system.cpu.dcache.tags.age_task_id_blocks_1024::3           15                       # Occupied blocks per task id
system.cpu.dcache.tags.age_task_id_blocks_1024::4          835                       # Occupied blocks per task id
system.cpu.dcache.tags.occ_task_id_percent::1022     0.104492                       # Percentage of cache occupancy per task id
system.cpu.dcache.tags.occ_task_id_percent::1024     0.895508                       # Percentage of cache occupancy per task id
system.cpu.dcache.tags.tag_accesses          83899390                       # Number of tag accesses
system.cpu.dcache.tags.data_accesses         83899390                       # Number of data accesses

---------- End Simulation Statistics   ----------
