
---------- Begin Simulation Statistics ----------
final_tick                                59350759500                       # Number of ticks from beginning of simulation (restored from checkpoints and never reset)
host_inst_rate                                 382818                       # Simulator instruction rate (inst/s)
host_mem_usage                                8497340                       # Number of bytes of host memory used
host_op_rate                                   446126                       # Simulator op (including micro ops) rate (op/s)
host_seconds                                   265.03                       # Real time elapsed on the host
host_tick_rate                              223936467                       # Simulator tick rate (ticks/s)
sim_freq                                 1000000000000                       # Frequency of simulated ticks
sim_insts                                   101459739                       # Number of instructions simulated
sim_ops                                     118238466                       # Number of ops (including micro ops) simulated
sim_seconds                                  0.059351                       # Number of seconds simulated
sim_ticks                                 59350759500                       # Number of ticks simulated
system.cpu.branchPred.BTBCorrect                    0                       # Number of correct BTB predictions (this stat may not work properly.
system.cpu.branchPred.BTBHitPct             99.997216                       # BTB Hit Percentage
system.cpu.branchPred.BTBHits                17208065                       # Number of BTB hits
system.cpu.branchPred.BTBLookups             17208544                       # Number of BTB lookups
system.cpu.branchPred.RASInCorrect                  1                       # Number of incorrect RAS predictions.
system.cpu.branchPred.condIncorrect             66582                       # Number of conditional branches incorrect
system.cpu.branchPred.condPredicted          17275979                       # Number of conditional branches predicted
system.cpu.branchPred.indirectHits                  1                       # Number of indirect target hits.
system.cpu.branchPred.indirectLookups             114                       # Number of indirect predictor lookups.
system.cpu.branchPred.indirectMisses              113                       # Number of indirect misses.
system.cpu.branchPred.lookups                17277035                       # Number of BP lookups
system.cpu.branchPred.usedRAS                     339                       # Number of times the RAS was used to get a target.
system.cpu.branchPredindirectMispredicted           49                       # Number of mispredicted indirect branches.
system.cpu.cc_regfile_reads                  50728644                       # number of cc regfile reads
system.cpu.cc_regfile_writes                 50729163                       # number of cc regfile writes
system.cpu.commit.amos                             26                       # Number of atomic instructions committed
system.cpu.commit.branchMispredicts             66366                       # The number of times a branch was mispredicted
system.cpu.commit.branches                   16910249                       # Number of branches committed
system.cpu.commit.bw_lim_events                 66722                       # number cycles where commit BW limit reached
system.cpu.commit.commitNonSpecStalls              77                       # The number of times commit has been forced to stall to communicate backwards
system.cpu.commit.commitSquashedInsts          259291                       # The number of squashed insts skipped by commit
system.cpu.commit.committedInsts            101525543                       # Number of instructions committed
system.cpu.commit.committedOps              118304270                       # Number of ops (including micro ops) committed
system.cpu.commit.committed_per_cycle::samples    118593924                       # Number of insts commited each cycle
system.cpu.commit.committed_per_cycle::mean     0.997558                       # Number of insts commited each cycle
system.cpu.commit.committed_per_cycle::stdev     1.620645                       # Number of insts commited each cycle
system.cpu.commit.committed_per_cycle::underflows            0      0.00%      0.00% # Number of insts commited each cycle
system.cpu.commit.committed_per_cycle::0     84991128     71.67%     71.67% # Number of insts commited each cycle
system.cpu.commit.committed_per_cycle::1         2172      0.00%     71.67% # Number of insts commited each cycle
system.cpu.commit.committed_per_cycle::2       254477      0.21%     71.88% # Number of insts commited each cycle
system.cpu.commit.committed_per_cycle::3     16571347     13.97%     85.86% # Number of insts commited each cycle
system.cpu.commit.committed_per_cycle::4     16436216     13.86%     99.71% # Number of insts commited each cycle
system.cpu.commit.committed_per_cycle::5        50697      0.04%     99.76% # Number of insts commited each cycle
system.cpu.commit.committed_per_cycle::6         1177      0.00%     99.76% # Number of insts commited each cycle
system.cpu.commit.committed_per_cycle::7       219988      0.19%     99.94% # Number of insts commited each cycle
system.cpu.commit.committed_per_cycle::8        66722      0.06%    100.00% # Number of insts commited each cycle
system.cpu.commit.committed_per_cycle::overflows            0      0.00%    100.00% # Number of insts commited each cycle
system.cpu.commit.committed_per_cycle::min_value            0                       # Number of insts commited each cycle
system.cpu.commit.committed_per_cycle::max_value            8                       # Number of insts commited each cycle
system.cpu.commit.committed_per_cycle::total    118593924                       # Number of insts commited each cycle
system.cpu.commit.fp_insts                          0                       # Number of committed floating point instructions.
system.cpu.commit.function_calls                  183                       # Number of function calls committed.
system.cpu.commit.int_insts                  84551794                       # Number of committed integer instructions.
system.cpu.commit.loads                      33621209                       # Number of loads committed
system.cpu.commit.membars                          30                       # Number of memory barriers committed
system.cpu.commit.op_class_0::No_OpClass           33      0.00%      0.00% # Class of committed instruction
system.cpu.commit.op_class_0::IntAlu         67838704     57.34%     57.34% # Class of committed instruction
system.cpu.commit.op_class_0::IntMult               9      0.00%     57.34% # Class of committed instruction
system.cpu.commit.op_class_0::IntDiv                3      0.00%     57.34% # Class of committed instruction
system.cpu.commit.op_class_0::FloatAdd              0      0.00%     57.34% # Class of committed instruction
system.cpu.commit.op_class_0::FloatCmp              0      0.00%     57.34% # Class of committed instruction
system.cpu.commit.op_class_0::FloatCvt              1      0.00%     57.34% # Class of committed instruction
system.cpu.commit.op_class_0::FloatMult             0      0.00%     57.34% # Class of committed instruction
system.cpu.commit.op_class_0::FloatMultAcc     16777216     14.18%     71.52% # Class of committed instruction
system.cpu.commit.op_class_0::FloatDiv              1      0.00%     71.52% # Class of committed instruction
system.cpu.commit.op_class_0::FloatMisc             1      0.00%     71.52% # Class of committed instruction
system.cpu.commit.op_class_0::FloatSqrt             0      0.00%     71.52% # Class of committed instruction
system.cpu.commit.op_class_0::SimdAdd              13      0.00%     71.52% # Class of committed instruction
system.cpu.commit.op_class_0::SimdAddAcc            0      0.00%     71.52% # Class of committed instruction
system.cpu.commit.op_class_0::SimdAlu              12      0.00%     71.52% # Class of committed instruction
system.cpu.commit.op_class_0::SimdCmp              12      0.00%     71.52% # Class of committed instruction
system.cpu.commit.op_class_0::SimdCvt               0      0.00%     71.52% # Class of committed instruction
system.cpu.commit.op_class_0::SimdMisc             15      0.00%     71.52% # Class of committed instruction
system.cpu.commit.op_class_0::SimdMult              0      0.00%     71.52% # Class of committed instruction
system.cpu.commit.op_class_0::SimdMultAcc            0      0.00%     71.52% # Class of committed instruction
system.cpu.commit.op_class_0::SimdShift             0      0.00%     71.52% # Class of committed instruction
system.cpu.commit.op_class_0::SimdShiftAcc            0      0.00%     71.52% # Class of committed instruction
system.cpu.commit.op_class_0::SimdDiv               0      0.00%     71.52% # Class of committed instruction
system.cpu.commit.op_class_0::SimdSqrt              0      0.00%     71.52% # Class of committed instruction
system.cpu.commit.op_class_0::SimdFloatAdd            0      0.00%     71.52% # Class of committed instruction
system.cpu.commit.op_class_0::SimdFloatAlu            0      0.00%     71.52% # Class of committed instruction
system.cpu.commit.op_class_0::SimdFloatCmp            0      0.00%     71.52% # Class of committed instruction
system.cpu.commit.op_class_0::SimdFloatCvt            0      0.00%     71.52% # Class of committed instruction
system.cpu.commit.op_class_0::SimdFloatDiv            0      0.00%     71.52% # Class of committed instruction
system.cpu.commit.op_class_0::SimdFloatMisc            0      0.00%     71.52% # Class of committed instruction
system.cpu.commit.op_class_0::SimdFloatMult            0      0.00%     71.52% # Class of committed instruction
system.cpu.commit.op_class_0::SimdFloatMultAcc            0      0.00%     71.52% # Class of committed instruction
system.cpu.commit.op_class_0::SimdFloatSqrt            0      0.00%     71.52% # Class of committed instruction
system.cpu.commit.op_class_0::SimdReduceAdd            0      0.00%     71.52% # Class of committed instruction
system.cpu.commit.op_class_0::SimdReduceAlu            0      0.00%     71.52% # Class of committed instruction
system.cpu.commit.op_class_0::SimdReduceCmp            0      0.00%     71.52% # Class of committed instruction
system.cpu.commit.op_class_0::SimdFloatReduceAdd            0      0.00%     71.52% # Class of committed instruction
system.cpu.commit.op_class_0::SimdFloatReduceCmp            0      0.00%     71.52% # Class of committed instruction
system.cpu.commit.op_class_0::SimdAes               0      0.00%     71.52% # Class of committed instruction
system.cpu.commit.op_class_0::SimdAesMix            0      0.00%     71.52% # Class of committed instruction
system.cpu.commit.op_class_0::SimdSha1Hash            0      0.00%     71.52% # Class of committed instruction
system.cpu.commit.op_class_0::SimdSha1Hash2            0      0.00%     71.52% # Class of committed instruction
system.cpu.commit.op_class_0::SimdSha256Hash            0      0.00%     71.52% # Class of committed instruction
system.cpu.commit.op_class_0::SimdSha256Hash2            0      0.00%     71.52% # Class of committed instruction
system.cpu.commit.op_class_0::SimdShaSigma2            0      0.00%     71.52% # Class of committed instruction
system.cpu.commit.op_class_0::SimdShaSigma3            0      0.00%     71.52% # Class of committed instruction
system.cpu.commit.op_class_0::SimdPredAlu            0      0.00%     71.52% # Class of committed instruction
system.cpu.commit.op_class_0::MemRead        33621209     28.42%     99.94% # Class of committed instruction
system.cpu.commit.op_class_0::MemWrite          67041      0.06%    100.00% # Class of committed instruction
system.cpu.commit.op_class_0::FloatMemRead            0      0.00%    100.00% # Class of committed instruction
system.cpu.commit.op_class_0::FloatMemWrite            0      0.00%    100.00% # Class of committed instruction
system.cpu.commit.op_class_0::IprAccess             0      0.00%    100.00% # Class of committed instruction
system.cpu.commit.op_class_0::InstPrefetch            0      0.00%    100.00% # Class of committed instruction
system.cpu.commit.op_class_0::total         118304270                       # Class of committed instruction
system.cpu.commit.refs                       33688250                       # Number of memory references committed
system.cpu.commit.swp_count                         0                       # Number of s/w prefetches committed
system.cpu.commit.vec_insts                  50462872                       # Number of committed Vector instructions.
system.cpu.committedInsts                   101459739                       # Number of Instructions Simulated
system.cpu.committedOps                     118238466                       # Number of Ops (including micro ops) Simulated
system.cpu.cpi                               1.169937                       # CPI: Cycles Per Instruction
system.cpu.cpi_total                         1.169937                       # CPI: Total CPI of All Threads
system.cpu.dcache.prefetcher.num_hwpf_issued        21466                       # number of hwpf issued
system.cpu.dcache.prefetcher.pfBufferHit     12905451                       # number of redundant prefetches already in prefetch queue
system.cpu.dcache.prefetcher.pfIdentified     25552239                       # number of prefetch candidates identified
system.cpu.dcache.prefetcher.pfInCache              0                       # number of redundant prefetches already in cache/mshr dropped
system.cpu.dcache.prefetcher.pfRemovedFull        14730                       # number of prefetches dropped due to prefetch queue size
system.cpu.dcache.prefetcher.pfSpanPage      42521421                       # number of prefetches that crossed the page
system.cpu.decode.BlockedCycles              65197253                       # Number of cycles decode is blocked
system.cpu.decode.BranchMispred                   225                       # Number of times decode detected a branch misprediction
system.cpu.decode.BranchResolved             16909129                       # Number of times decode resolved a branch
system.cpu.decode.DecodedInsts              119043240                       # Number of instructions handled by decode
system.cpu.decode.IdleCycles                 13268949                       # Number of cycles decode is idle
system.cpu.decode.RunCycles                  23746923                       # Number of cycles decode is running
system.cpu.decode.SquashCycles                  66385                       # Number of cycles decode is squashing
system.cpu.decode.SquashedInsts                244927                       # Number of squashed instructions handled by decode
system.cpu.decode.UnblockCycles              16380962                       # Number of cycles decode is unblocking
system.cpu.dtb.accesses                             0                       # DTB accesses
system.cpu.dtb.align_faults                         0                       # Number of TLB faults due to alignment restrictions
system.cpu.dtb.domain_faults                        0                       # Number of TLB faults due to domain restrictions
system.cpu.dtb.flush_entries                        0                       # Number of entries that have been flushed from TLB
system.cpu.dtb.flush_tlb                            0                       # Number of times complete TLB was flushed
system.cpu.dtb.flush_tlb_asid                       0                       # Number of times TLB was flushed by ASID
system.cpu.dtb.flush_tlb_mva                        0                       # Number of times TLB was flushed by MVA
system.cpu.dtb.flush_tlb_mva_asid                   0                       # Number of times TLB was flushed by MVA & ASID
system.cpu.dtb.hits                                 0                       # DTB hits
system.cpu.dtb.inst_accesses                        0                       # ITB inst accesses
system.cpu.dtb.inst_hits                            0                       # ITB inst hits
system.cpu.dtb.inst_misses                          0                       # ITB inst misses
system.cpu.dtb.misses                               0                       # DTB misses
system.cpu.dtb.perms_faults                         0                       # Number of TLB faults due to permissions restrictions
system.cpu.dtb.prefetch_faults                      0                       # Number of TLB faults due to prefetch
system.cpu.dtb.read_accesses                        0                       # DTB read accesses
system.cpu.dtb.read_hits                            0                       # DTB read hits
system.cpu.dtb.read_misses                          0                       # DTB read misses
system.cpu.dtb.stage2_mmu.stage2_tlb.accesses            0                       # DTB accesses
system.cpu.dtb.stage2_mmu.stage2_tlb.align_faults            0                       # Number of TLB faults due to alignment restrictions
system.cpu.dtb.stage2_mmu.stage2_tlb.domain_faults            0                       # Number of TLB faults due to domain restrictions
system.cpu.dtb.stage2_mmu.stage2_tlb.flush_entries            0                       # Number of entries that have been flushed from TLB
system.cpu.dtb.stage2_mmu.stage2_tlb.flush_tlb            0                       # Number of times complete TLB was flushed
system.cpu.dtb.stage2_mmu.stage2_tlb.flush_tlb_asid            0                       # Number of times TLB was flushed by ASID
system.cpu.dtb.stage2_mmu.stage2_tlb.flush_tlb_mva            0                       # Number of times TLB was flushed by MVA
system.cpu.dtb.stage2_mmu.stage2_tlb.flush_tlb_mva_asid            0                       # Number of times TLB was flushed by MVA & ASID
system.cpu.dtb.stage2_mmu.stage2_tlb.hits            0                       # DTB hits
system.cpu.dtb.stage2_mmu.stage2_tlb.inst_accesses            0                       # ITB inst accesses
system.cpu.dtb.stage2_mmu.stage2_tlb.inst_hits            0                       # ITB inst hits
system.cpu.dtb.stage2_mmu.stage2_tlb.inst_misses            0                       # ITB inst misses
system.cpu.dtb.stage2_mmu.stage2_tlb.misses            0                       # DTB misses
system.cpu.dtb.stage2_mmu.stage2_tlb.perms_faults            0                       # Number of TLB faults due to permissions restrictions
system.cpu.dtb.stage2_mmu.stage2_tlb.prefetch_faults            0                       # Number of TLB faults due to prefetch
system.cpu.dtb.stage2_mmu.stage2_tlb.read_accesses            0                       # DTB read accesses
system.cpu.dtb.stage2_mmu.stage2_tlb.read_hits            0                       # DTB read hits
system.cpu.dtb.stage2_mmu.stage2_tlb.read_misses            0                       # DTB read misses
system.cpu.dtb.stage2_mmu.stage2_tlb.walker.walkRequestOrigin_Requested::Data            0                       # Table walker requests started/completed, data/inst
system.cpu.dtb.stage2_mmu.stage2_tlb.walker.walkRequestOrigin_Requested::Inst            0                       # Table walker requests started/completed, data/inst
system.cpu.dtb.stage2_mmu.stage2_tlb.walker.walkRequestOrigin_Requested::total            0                       # Table walker requests started/completed, data/inst
system.cpu.dtb.stage2_mmu.stage2_tlb.walker.walkRequestOrigin_Completed::Data            0                       # Table walker requests started/completed, data/inst
system.cpu.dtb.stage2_mmu.stage2_tlb.walker.walkRequestOrigin_Completed::Inst            0                       # Table walker requests started/completed, data/inst
system.cpu.dtb.stage2_mmu.stage2_tlb.walker.walkRequestOrigin_Completed::total            0                       # Table walker requests started/completed, data/inst
system.cpu.dtb.stage2_mmu.stage2_tlb.walker.walkRequestOrigin::total            0                       # Table walker requests started/completed, data/inst
system.cpu.dtb.stage2_mmu.stage2_tlb.walker.walks            0                       # Table walker walks requested
system.cpu.dtb.stage2_mmu.stage2_tlb.write_accesses            0                       # DTB write accesses
system.cpu.dtb.stage2_mmu.stage2_tlb.write_hits            0                       # DTB write hits
system.cpu.dtb.stage2_mmu.stage2_tlb.write_misses            0                       # DTB write misses
system.cpu.dtb.walker.walkRequestOrigin_Requested::Data            0                       # Table walker requests started/completed, data/inst
system.cpu.dtb.walker.walkRequestOrigin_Requested::Inst            0                       # Table walker requests started/completed, data/inst
system.cpu.dtb.walker.walkRequestOrigin_Requested::total            0                       # Table walker requests started/completed, data/inst
system.cpu.dtb.walker.walkRequestOrigin_Completed::Data            0                       # Table walker requests started/completed, data/inst
system.cpu.dtb.walker.walkRequestOrigin_Completed::Inst            0                       # Table walker requests started/completed, data/inst
system.cpu.dtb.walker.walkRequestOrigin_Completed::total            0                       # Table walker requests started/completed, data/inst
system.cpu.dtb.walker.walkRequestOrigin::total            0                       # Table walker requests started/completed, data/inst
system.cpu.dtb.walker.walks                         0                       # Table walker walks requested
system.cpu.dtb.write_accesses                       0                       # DTB write accesses
system.cpu.dtb.write_hits                           0                       # DTB write hits
system.cpu.dtb.write_misses                         0                       # DTB write misses
system.cpu.fetch.Branches                    17277035                       # Number of branches that fetch encountered
system.cpu.fetch.CacheLines                  34625909                       # Number of cache lines fetched
system.cpu.fetch.Cycles                      83946235                       # Number of cycles fetch has run and was not squashing or blocked
system.cpu.fetch.IcacheSquashes                 24748                       # Number of outstanding Icache misses that were squashed
system.cpu.fetch.Insts                      103908475                       # Number of instructions fetch has processed
system.cpu.fetch.SquashCycles                  133202                       # Number of cycles fetch has spent squashing
system.cpu.fetch.branchRate                  0.145550                       # Number of branch fetches per cycle
system.cpu.fetch.icacheStallCycles           34647636                       # Number of cycles fetch is stalled on an Icache miss
system.cpu.fetch.predictedBranches           17208405                       # Number of branches that fetch has predicted taken
system.cpu.fetch.rate                        0.875376                       # Number of inst fetches per cycle
system.cpu.fetch.rateDist::samples          118660472                       # Number of instructions fetched each cycle (Total)
system.cpu.fetch.rateDist::mean              1.020553                       # Number of instructions fetched each cycle (Total)
system.cpu.fetch.rateDist::stdev             1.172700                       # Number of instructions fetched each cycle (Total)
system.cpu.fetch.rateDist::underflows               0      0.00%      0.00% # Number of instructions fetched each cycle (Total)
system.cpu.fetch.rateDist::0                 63007447     53.10%     53.10% # Number of instructions fetched each cycle (Total)
system.cpu.fetch.rateDist::1                  7597378      6.40%     59.50% # Number of instructions fetched each cycle (Total)
system.cpu.fetch.rateDist::2                 30664977     25.84%     85.34% # Number of instructions fetched each cycle (Total)
system.cpu.fetch.rateDist::3                 17390670     14.66%    100.00% # Number of instructions fetched each cycle (Total)
system.cpu.fetch.rateDist::overflows                0      0.00%    100.00% # Number of instructions fetched each cycle (Total)
system.cpu.fetch.rateDist::min_value                0                       # Number of instructions fetched each cycle (Total)
system.cpu.fetch.rateDist::max_value                3                       # Number of instructions fetched each cycle (Total)
system.cpu.fetch.rateDist::total            118660472                       # Number of instructions fetched each cycle (Total)
system.cpu.idleCycles                           41048                       # Total number of cycles that the CPU has spent unscheduled due to idling
system.cpu.iew.branchMispredicts                66401                       # Number of branch mispredicts detected at execute
system.cpu.iew.exec_branches                 16910667                       # Number of branches executed
system.cpu.iew.exec_nop                         65913                       # number of nop insts executed
system.cpu.iew.exec_rate                     1.354304                       # Inst execution rate
system.cpu.iew.exec_refs                     76119856                       # number of memory reference insts executed
system.cpu.iew.exec_stores                      67146                       # Number of stores executed
system.cpu.iew.exec_swp                             0                       # number of swp insts executed
system.cpu.iew.iewBlockCycles                     206                       # Number of cycles IEW is blocking
system.cpu.iew.iewDispLoadInsts              33721578                       # Number of dispatched load instructions
system.cpu.iew.iewDispNonSpecInsts                 90                       # Number of dispatched non-speculative instructions
system.cpu.iew.iewDispSquashedInsts                 0                       # Number of squashed instructions skipped by dispatch
system.cpu.iew.iewDispStoreInsts                67399                       # Number of dispatched store instructions
system.cpu.iew.iewDispatchedInsts           118555884                       # Number of instructions dispatched to IQ
system.cpu.iew.iewExecLoadInsts              76052710                       # Number of load instructions executed
system.cpu.iew.iewExecSquashedInsts             50911                       # Number of squashed instructions skipped in execute
system.cpu.iew.iewExecutedInsts             160757894                       # Number of executed instructions
system.cpu.iew.iewIQFullEvents                      0                       # Number of times the IQ has become full, causing a stall
system.cpu.iew.iewIdleCycles                        0                       # Number of cycles IEW is idle
system.cpu.iew.iewLSQFullEvents              15573724                       # Number of times the LSQ has become full, causing a stall
system.cpu.iew.iewSquashCycles                  66385                       # Number of cycles IEW is squashing
system.cpu.iew.iewUnblockCycles              15557632                       # Number of cycles IEW is unblocking
system.cpu.iew.lsq.thread0.blockedLoads             0                       # Number of blocked loads due to partial load-store forwarding
system.cpu.iew.lsq.thread0.cacheBlocked       4498935                       # Number of times an access to memory failed due to the cache being blocked
system.cpu.iew.lsq.thread0.forwLoads                6                       # Number of loads that had data forwarded from stores
system.cpu.iew.lsq.thread0.ignoredResponses            0                       # Number of memory responses ignored because the instruction is squashed
system.cpu.iew.lsq.thread0.invAddrLoads             0                       # Number of loads ignored due to an invalid address
system.cpu.iew.lsq.thread0.invAddrSwpfs             0                       # Number of software prefetches ignored due to an invalid address
system.cpu.iew.lsq.thread0.memOrderViolation            2                       # Number of memory ordering violations
system.cpu.iew.lsq.thread0.rescheduledLoads            6                       # Number of loads that were rescheduled
system.cpu.iew.lsq.thread0.squashedLoads       100369                       # Number of loads squashed
system.cpu.iew.lsq.thread0.squashedStores          358                       # Number of stores squashed
system.cpu.iew.memOrderViolationEvents              2                       # Number of memory order violations
system.cpu.iew.predictedNotTakenIncorrect          604                       # Number of branches that were predicted not taken incorrectly
system.cpu.iew.predictedTakenIncorrect          65797                       # Number of branches that were predicted taken incorrectly
system.cpu.iew.wb_consumers                 110261872                       # num instructions consuming a value
system.cpu.iew.wb_count                     118326467                       # cumulative count of insts written-back
system.cpu.iew.wb_fanout                     0.713733                       # average fanout of values written-back
system.cpu.iew.wb_producers                  78697537                       # num instructions producing a value
system.cpu.iew.wb_rate                       0.996840                       # insts written-back per cycle
system.cpu.iew.wb_sent                      118326578                       # cumulative count of insts sent to commit
system.cpu.int_regfile_reads                161101033                       # number of integer regfile reads
system.cpu.int_regfile_writes                50951995                       # number of integer regfile writes
system.cpu.ipc                               0.854747                       # IPC: Instructions Per Cycle
system.cpu.ipc_total                         0.854747                       # IPC: Total IPC of All Threads
system.cpu.iq.FU_type_0::No_OpClass                33      0.00%      0.00% # Type of FU issued
system.cpu.iq.FU_type_0::IntAlu              67887259     42.22%     42.22% # Type of FU issued
system.cpu.iq.FU_type_0::IntMult                    9      0.00%     42.22% # Type of FU issued
system.cpu.iq.FU_type_0::IntDiv                     3      0.00%     42.22% # Type of FU issued
system.cpu.iq.FU_type_0::FloatAdd                   0      0.00%     42.22% # Type of FU issued
system.cpu.iq.FU_type_0::FloatCmp                   0      0.00%     42.22% # Type of FU issued
system.cpu.iq.FU_type_0::FloatCvt                   2      0.00%     42.22% # Type of FU issued
system.cpu.iq.FU_type_0::FloatMult                  0      0.00%     42.22% # Type of FU issued
system.cpu.iq.FU_type_0::FloatMultAcc        16777216     10.43%     52.65% # Type of FU issued
system.cpu.iq.FU_type_0::FloatDiv                   1      0.00%     52.65% # Type of FU issued
system.cpu.iq.FU_type_0::FloatMisc                  1      0.00%     52.65% # Type of FU issued
system.cpu.iq.FU_type_0::FloatSqrt                  0      0.00%     52.65% # Type of FU issued
system.cpu.iq.FU_type_0::SimdAdd                   13      0.00%     52.65% # Type of FU issued
system.cpu.iq.FU_type_0::SimdAddAcc                 0      0.00%     52.65% # Type of FU issued
system.cpu.iq.FU_type_0::SimdAlu                   12      0.00%     52.65% # Type of FU issued
system.cpu.iq.FU_type_0::SimdCmp                   12      0.00%     52.65% # Type of FU issued
system.cpu.iq.FU_type_0::SimdCvt                    0      0.00%     52.65% # Type of FU issued
system.cpu.iq.FU_type_0::SimdMisc                  19      0.00%     52.65% # Type of FU issued
system.cpu.iq.FU_type_0::SimdMult                   0      0.00%     52.65% # Type of FU issued
system.cpu.iq.FU_type_0::SimdMultAcc                0      0.00%     52.65% # Type of FU issued
system.cpu.iq.FU_type_0::SimdShift                  0      0.00%     52.65% # Type of FU issued
system.cpu.iq.FU_type_0::SimdShiftAcc               0      0.00%     52.65% # Type of FU issued
system.cpu.iq.FU_type_0::SimdDiv                    0      0.00%     52.65% # Type of FU issued
system.cpu.iq.FU_type_0::SimdSqrt                   0      0.00%     52.65% # Type of FU issued
system.cpu.iq.FU_type_0::SimdFloatAdd               0      0.00%     52.65% # Type of FU issued
system.cpu.iq.FU_type_0::SimdFloatAlu               0      0.00%     52.65% # Type of FU issued
system.cpu.iq.FU_type_0::SimdFloatCmp               0      0.00%     52.65% # Type of FU issued
system.cpu.iq.FU_type_0::SimdFloatCvt               0      0.00%     52.65% # Type of FU issued
system.cpu.iq.FU_type_0::SimdFloatDiv               0      0.00%     52.65% # Type of FU issued
system.cpu.iq.FU_type_0::SimdFloatMisc              0      0.00%     52.65% # Type of FU issued
system.cpu.iq.FU_type_0::SimdFloatMult              0      0.00%     52.65% # Type of FU issued
system.cpu.iq.FU_type_0::SimdFloatMultAcc            0      0.00%     52.65% # Type of FU issued
system.cpu.iq.FU_type_0::SimdFloatSqrt              0      0.00%     52.65% # Type of FU issued
system.cpu.iq.FU_type_0::SimdReduceAdd              0      0.00%     52.65% # Type of FU issued
system.cpu.iq.FU_type_0::SimdReduceAlu              0      0.00%     52.65% # Type of FU issued
system.cpu.iq.FU_type_0::SimdReduceCmp              0      0.00%     52.65% # Type of FU issued
system.cpu.iq.FU_type_0::SimdFloatReduceAdd            0      0.00%     52.65% # Type of FU issued
system.cpu.iq.FU_type_0::SimdFloatReduceCmp            0      0.00%     52.65% # Type of FU issued
system.cpu.iq.FU_type_0::SimdAes                    0      0.00%     52.65% # Type of FU issued
system.cpu.iq.FU_type_0::SimdAesMix                 0      0.00%     52.65% # Type of FU issued
system.cpu.iq.FU_type_0::SimdSha1Hash               0      0.00%     52.65% # Type of FU issued
system.cpu.iq.FU_type_0::SimdSha1Hash2              0      0.00%     52.65% # Type of FU issued
system.cpu.iq.FU_type_0::SimdSha256Hash             0      0.00%     52.65% # Type of FU issued
system.cpu.iq.FU_type_0::SimdSha256Hash2            0      0.00%     52.65% # Type of FU issued
system.cpu.iq.FU_type_0::SimdShaSigma2              0      0.00%     52.65% # Type of FU issued
system.cpu.iq.FU_type_0::SimdShaSigma3              0      0.00%     52.65% # Type of FU issued
system.cpu.iq.FU_type_0::SimdPredAlu                0      0.00%     52.65% # Type of FU issued
system.cpu.iq.FU_type_0::MemRead             76077007     47.31%     99.96% # Type of FU issued
system.cpu.iq.FU_type_0::MemWrite               67218      0.04%    100.00% # Type of FU issued
system.cpu.iq.FU_type_0::FloatMemRead               0      0.00%    100.00% # Type of FU issued
system.cpu.iq.FU_type_0::FloatMemWrite              0      0.00%    100.00% # Type of FU issued
system.cpu.iq.FU_type_0::IprAccess                  0      0.00%    100.00% # Type of FU issued
system.cpu.iq.FU_type_0::InstPrefetch               0      0.00%    100.00% # Type of FU issued
system.cpu.iq.FU_type_0::total              160808805                       # Type of FU issued
system.cpu.iq.fp_alu_accesses                       0                       # Number of floating point alu accesses
system.cpu.iq.fp_inst_queue_reads                   0                       # Number of floating instruction queue reads
system.cpu.iq.fp_inst_queue_wakeup_accesses            0                       # Number of floating instruction queue wakeup accesses
system.cpu.iq.fp_inst_queue_writes                  0                       # Number of floating instruction queue writes
system.cpu.iq.fu_busy_cnt                    59163880                       # FU busy when requested
system.cpu.iq.fu_busy_rate                   0.367914                       # FU busy rate (busy events/executed inst)
system.cpu.iq.fu_full::No_OpClass                   0      0.00%      0.00% # attempts to use FU when none available
system.cpu.iq.fu_full::IntAlu                 2883785      4.87%      4.87% # attempts to use FU when none available
system.cpu.iq.fu_full::IntMult                      0      0.00%      4.87% # attempts to use FU when none available
system.cpu.iq.fu_full::IntDiv                       0      0.00%      4.87% # attempts to use FU when none available
system.cpu.iq.fu_full::FloatAdd                     0      0.00%      4.87% # attempts to use FU when none available
system.cpu.iq.fu_full::FloatCmp                     0      0.00%      4.87% # attempts to use FU when none available
system.cpu.iq.fu_full::FloatCvt                     0      0.00%      4.87% # attempts to use FU when none available
system.cpu.iq.fu_full::FloatMult                    0      0.00%      4.87% # attempts to use FU when none available
system.cpu.iq.fu_full::FloatMultAcc                 0      0.00%      4.87% # attempts to use FU when none available
system.cpu.iq.fu_full::FloatDiv                     0      0.00%      4.87% # attempts to use FU when none available
system.cpu.iq.fu_full::FloatMisc                    0      0.00%      4.87% # attempts to use FU when none available
system.cpu.iq.fu_full::FloatSqrt                    0      0.00%      4.87% # attempts to use FU when none available
system.cpu.iq.fu_full::SimdAdd                      0      0.00%      4.87% # attempts to use FU when none available
system.cpu.iq.fu_full::SimdAddAcc                   0      0.00%      4.87% # attempts to use FU when none available
system.cpu.iq.fu_full::SimdAlu                      1      0.00%      4.87% # attempts to use FU when none available
system.cpu.iq.fu_full::SimdCmp                      3      0.00%      4.87% # attempts to use FU when none available
system.cpu.iq.fu_full::SimdCvt                      0      0.00%      4.87% # attempts to use FU when none available
system.cpu.iq.fu_full::SimdMisc                     0      0.00%      4.87% # attempts to use FU when none available
system.cpu.iq.fu_full::SimdMult                     0      0.00%      4.87% # attempts to use FU when none available
system.cpu.iq.fu_full::SimdMultAcc                  0      0.00%      4.87% # attempts to use FU when none available
system.cpu.iq.fu_full::SimdShift                    0      0.00%      4.87% # attempts to use FU when none available
system.cpu.iq.fu_full::SimdShiftAcc                 0      0.00%      4.87% # attempts to use FU when none available
system.cpu.iq.fu_full::SimdDiv                      0      0.00%      4.87% # attempts to use FU when none available
system.cpu.iq.fu_full::SimdSqrt                     0      0.00%      4.87% # attempts to use FU when none available
system.cpu.iq.fu_full::SimdFloatAdd                 0      0.00%      4.87% # attempts to use FU when none available
system.cpu.iq.fu_full::SimdFloatAlu                 0      0.00%      4.87% # attempts to use FU when none available
system.cpu.iq.fu_full::SimdFloatCmp                 0      0.00%      4.87% # attempts to use FU when none available
system.cpu.iq.fu_full::SimdFloatCvt                 0      0.00%      4.87% # attempts to use FU when none available
system.cpu.iq.fu_full::SimdFloatDiv                 0      0.00%      4.87% # attempts to use FU when none available
system.cpu.iq.fu_full::SimdFloatMisc                0      0.00%      4.87% # attempts to use FU when none available
system.cpu.iq.fu_full::SimdFloatMult                0      0.00%      4.87% # attempts to use FU when none available
system.cpu.iq.fu_full::SimdFloatMultAcc             0      0.00%      4.87% # attempts to use FU when none available
system.cpu.iq.fu_full::SimdFloatSqrt                0      0.00%      4.87% # attempts to use FU when none available
system.cpu.iq.fu_full::SimdReduceAdd                0      0.00%      4.87% # attempts to use FU when none available
system.cpu.iq.fu_full::SimdReduceAlu                0      0.00%      4.87% # attempts to use FU when none available
system.cpu.iq.fu_full::SimdReduceCmp                0      0.00%      4.87% # attempts to use FU when none available
system.cpu.iq.fu_full::SimdFloatReduceAdd            0      0.00%      4.87% # attempts to use FU when none available
system.cpu.iq.fu_full::SimdFloatReduceCmp            0      0.00%      4.87% # attempts to use FU when none available
system.cpu.iq.fu_full::SimdAes                      0      0.00%      4.87% # attempts to use FU when none available
system.cpu.iq.fu_full::SimdAesMix                   0      0.00%      4.87% # attempts to use FU when none available
system.cpu.iq.fu_full::SimdSha1Hash                 0      0.00%      4.87% # attempts to use FU when none available
system.cpu.iq.fu_full::SimdSha1Hash2                0      0.00%      4.87% # attempts to use FU when none available
system.cpu.iq.fu_full::SimdSha256Hash               0      0.00%      4.87% # attempts to use FU when none available
system.cpu.iq.fu_full::SimdSha256Hash2              0      0.00%      4.87% # attempts to use FU when none available
system.cpu.iq.fu_full::SimdShaSigma2                0      0.00%      4.87% # attempts to use FU when none available
system.cpu.iq.fu_full::SimdShaSigma3                0      0.00%      4.87% # attempts to use FU when none available
system.cpu.iq.fu_full::SimdPredAlu                  0      0.00%      4.87% # attempts to use FU when none available
system.cpu.iq.fu_full::MemRead               56279368     95.12%    100.00% # attempts to use FU when none available
system.cpu.iq.fu_full::MemWrite                   723      0.00%    100.00% # attempts to use FU when none available
system.cpu.iq.fu_full::FloatMemRead                 0      0.00%    100.00% # attempts to use FU when none available
system.cpu.iq.fu_full::FloatMemWrite                0      0.00%    100.00% # attempts to use FU when none available
system.cpu.iq.fu_full::IprAccess                    0      0.00%    100.00% # attempts to use FU when none available
system.cpu.iq.fu_full::InstPrefetch                 0      0.00%    100.00% # attempts to use FU when none available
system.cpu.iq.int_alu_accesses               70775374                       # Number of integer alu accesses
system.cpu.iq.int_inst_queue_reads          257326739                       # Number of integer instruction queue reads
system.cpu.iq.int_inst_queue_wakeup_accesses     67863592                       # Number of integer instruction queue wakeup accesses
system.cpu.iq.int_inst_queue_writes          68041377                       # Number of integer instruction queue writes
system.cpu.iq.iqInstsAdded                  118489881                       # Number of instructions added to the IQ (excludes non-spec)
system.cpu.iq.iqInstsIssued                 160808805                       # Number of instructions issued
system.cpu.iq.iqNonSpecInstsAdded                  90                       # Number of non-speculative instructions added to the IQ
system.cpu.iq.iqSquashedInstsExamined          251504                       # Number of squashed instructions iterated over during squash; mainly for profiling
system.cpu.iq.iqSquashedInstsIssued             75598                       # Number of squashed instructions issued
system.cpu.iq.iqSquashedNonSpecRemoved             13                       # Number of squashed non-spec instructions that were removed
system.cpu.iq.iqSquashedOperandsExamined       465188                       # Number of squashed operands that are examined and possibly removed from graph
system.cpu.iq.issued_per_cycle::samples     118660472                       # Number of insts issued each cycle
system.cpu.iq.issued_per_cycle::mean         1.355201                       # Number of insts issued each cycle
system.cpu.iq.issued_per_cycle::stdev        1.054931                       # Number of insts issued each cycle
system.cpu.iq.issued_per_cycle::underflows            0      0.00%      0.00% # Number of insts issued each cycle
system.cpu.iq.issued_per_cycle::0            32459475     27.35%     27.35% # Number of insts issued each cycle
system.cpu.iq.issued_per_cycle::1            31456269     26.51%     53.86% # Number of insts issued each cycle
system.cpu.iq.issued_per_cycle::2            34997840     29.49%     83.36% # Number of insts issued each cycle
system.cpu.iq.issued_per_cycle::3            19630696     16.54%     99.90% # Number of insts issued each cycle
system.cpu.iq.issued_per_cycle::4              116192      0.10%    100.00% # Number of insts issued each cycle
system.cpu.iq.issued_per_cycle::5                   0      0.00%    100.00% # Number of insts issued each cycle
system.cpu.iq.issued_per_cycle::6                   0      0.00%    100.00% # Number of insts issued each cycle
system.cpu.iq.issued_per_cycle::7                   0      0.00%    100.00% # Number of insts issued each cycle
system.cpu.iq.issued_per_cycle::8                   0      0.00%    100.00% # Number of insts issued each cycle
system.cpu.iq.issued_per_cycle::overflows            0      0.00%    100.00% # Number of insts issued each cycle
system.cpu.iq.issued_per_cycle::min_value            0                       # Number of insts issued each cycle
system.cpu.iq.issued_per_cycle::max_value            4                       # Number of insts issued each cycle
system.cpu.iq.issued_per_cycle::total       118660472                       # Number of insts issued each cycle
system.cpu.iq.rate                           1.354732                       # Inst issue rate
system.cpu.iq.vec_alu_accesses              149197278                       # Number of vector alu accesses
system.cpu.iq.vec_inst_queue_reads          242190821                       # Number of vector instruction queue reads
system.cpu.iq.vec_inst_queue_wakeup_accesses     50462875                       # Number of vector instruction queue wakeup accesses
system.cpu.iq.vec_inst_queue_writes          50700100                       # Number of vector instruction queue writes
system.cpu.itb.accesses                             0                       # DTB accesses
system.cpu.itb.align_faults                         0                       # Number of TLB faults due to alignment restrictions
system.cpu.itb.domain_faults                        0                       # Number of TLB faults due to domain restrictions
system.cpu.itb.flush_entries                        0                       # Number of entries that have been flushed from TLB
system.cpu.itb.flush_tlb                            0                       # Number of times complete TLB was flushed
system.cpu.itb.flush_tlb_asid                       0                       # Number of times TLB was flushed by ASID
system.cpu.itb.flush_tlb_mva                        0                       # Number of times TLB was flushed by MVA
system.cpu.itb.flush_tlb_mva_asid                   0                       # Number of times TLB was flushed by MVA & ASID
system.cpu.itb.hits                                 0                       # DTB hits
system.cpu.itb.inst_accesses                        0                       # ITB inst accesses
system.cpu.itb.inst_hits                            0                       # ITB inst hits
system.cpu.itb.inst_misses                          0                       # ITB inst misses
system.cpu.itb.misses                               0                       # DTB misses
system.cpu.itb.perms_faults                         0                       # Number of TLB faults due to permissions restrictions
system.cpu.itb.prefetch_faults                      0                       # Number of TLB faults due to prefetch
system.cpu.itb.read_accesses                        0                       # DTB read accesses
system.cpu.itb.read_hits                            0                       # DTB read hits
system.cpu.itb.read_misses                          0                       # DTB read misses
system.cpu.itb.stage2_mmu.stage2_tlb.accesses            0                       # DTB accesses
system.cpu.itb.stage2_mmu.stage2_tlb.align_faults            0                       # Number of TLB faults due to alignment restrictions
system.cpu.itb.stage2_mmu.stage2_tlb.domain_faults            0                       # Number of TLB faults due to domain restrictions
system.cpu.itb.stage2_mmu.stage2_tlb.flush_entries            0                       # Number of entries that have been flushed from TLB
system.cpu.itb.stage2_mmu.stage2_tlb.flush_tlb            0                       # Number of times complete TLB was flushed
system.cpu.itb.stage2_mmu.stage2_tlb.flush_tlb_asid            0                       # Number of times TLB was flushed by ASID
system.cpu.itb.stage2_mmu.stage2_tlb.flush_tlb_mva            0                       # Number of times TLB was flushed by MVA
system.cpu.itb.stage2_mmu.stage2_tlb.flush_tlb_mva_asid            0                       # Number of times TLB was flushed by MVA & ASID
system.cpu.itb.stage2_mmu.stage2_tlb.hits            0                       # DTB hits
system.cpu.itb.stage2_mmu.stage2_tlb.inst_accesses            0                       # ITB inst accesses
system.cpu.itb.stage2_mmu.stage2_tlb.inst_hits            0                       # ITB inst hits
system.cpu.itb.stage2_mmu.stage2_tlb.inst_misses            0                       # ITB inst misses
system.cpu.itb.stage2_mmu.stage2_tlb.misses            0                       # DTB misses
system.cpu.itb.stage2_mmu.stage2_tlb.perms_faults            0                       # Number of TLB faults due to permissions restrictions
system.cpu.itb.stage2_mmu.stage2_tlb.prefetch_faults            0                       # Number of TLB faults due to prefetch
system.cpu.itb.stage2_mmu.stage2_tlb.read_accesses            0                       # DTB read accesses
system.cpu.itb.stage2_mmu.stage2_tlb.read_hits            0                       # DTB read hits
system.cpu.itb.stage2_mmu.stage2_tlb.read_misses            0                       # DTB read misses
system.cpu.itb.stage2_mmu.stage2_tlb.walker.walkRequestOrigin_Requested::Data            0                       # Table walker requests started/completed, data/inst
system.cpu.itb.stage2_mmu.stage2_tlb.walker.walkRequestOrigin_Requested::Inst            0                       # Table walker requests started/completed, data/inst
system.cpu.itb.stage2_mmu.stage2_tlb.walker.walkRequestOrigin_Requested::total            0                       # Table walker requests started/completed, data/inst
system.cpu.itb.stage2_mmu.stage2_tlb.walker.walkRequestOrigin_Completed::Data            0                       # Table walker requests started/completed, data/inst
system.cpu.itb.stage2_mmu.stage2_tlb.walker.walkRequestOrigin_Completed::Inst            0                       # Table walker requests started/completed, data/inst
system.cpu.itb.stage2_mmu.stage2_tlb.walker.walkRequestOrigin_Completed::total            0                       # Table walker requests started/completed, data/inst
system.cpu.itb.stage2_mmu.stage2_tlb.walker.walkRequestOrigin::total            0                       # Table walker requests started/completed, data/inst
system.cpu.itb.stage2_mmu.stage2_tlb.walker.walks            0                       # Table walker walks requested
system.cpu.itb.stage2_mmu.stage2_tlb.write_accesses            0                       # DTB write accesses
system.cpu.itb.stage2_mmu.stage2_tlb.write_hits            0                       # DTB write hits
system.cpu.itb.stage2_mmu.stage2_tlb.write_misses            0                       # DTB write misses
system.cpu.itb.walker.walkRequestOrigin_Requested::Data            0                       # Table walker requests started/completed, data/inst
system.cpu.itb.walker.walkRequestOrigin_Requested::Inst            0                       # Table walker requests started/completed, data/inst
system.cpu.itb.walker.walkRequestOrigin_Requested::total            0                       # Table walker requests started/completed, data/inst
system.cpu.itb.walker.walkRequestOrigin_Completed::Data            0                       # Table walker requests started/completed, data/inst
system.cpu.itb.walker.walkRequestOrigin_Completed::Inst            0                       # Table walker requests started/completed, data/inst
system.cpu.itb.walker.walkRequestOrigin_Completed::total            0                       # Table walker requests started/completed, data/inst
system.cpu.itb.walker.walkRequestOrigin::total            0                       # Table walker requests started/completed, data/inst
system.cpu.itb.walker.walks                         0                       # Table walker walks requested
system.cpu.itb.write_accesses                       0                       # DTB write accesses
system.cpu.itb.write_hits                           0                       # DTB write hits
system.cpu.itb.write_misses                         0                       # DTB write misses
system.cpu.memDep0.conflictingLoads                 0                       # Number of conflicting loads.
system.cpu.memDep0.conflictingStores                0                       # Number of conflicting stores.
system.cpu.memDep0.insertedLoads             33721578                       # Number of loads inserted to the mem dependence unit.
system.cpu.memDep0.insertedStores               67399                       # Number of stores inserted to the mem dependence unit.
system.cpu.misc_regfile_reads               481532458                       # number of misc regfile reads
system.cpu.misc_regfile_writes               16777287                       # number of misc regfile writes
system.cpu.numCycles                        118701520                       # number of cpu cycles simulated
system.cpu.numWorkItemsCompleted                    0                       # number of work items this cpu completed
system.cpu.numWorkItemsStarted                      0                       # number of work items this cpu started
system.cpu.rename.BlockCycles                17838871                       # Number of cycles rename is blocking
system.cpu.rename.CommittedMaps             168766901                       # Number of HB maps that are committed
system.cpu.rename.FullRegisterEvents               39                       # Number of times there has been no free registers
system.cpu.rename.IdleCycles                 21612572                       # Number of cycles rename is idle
system.cpu.rename.LQFullEvents               39193402                       # Number of times rename has blocked due to LQ full
system.cpu.rename.ROBFullEvents              34374731                       # Number of times rename has blocked due to ROB full
system.cpu.rename.RenameLookups             338287812                       # Number of register rename lookups that rename has made
system.cpu.rename.RenamedInsts              118658249                       # Number of instructions processed by rename
system.cpu.rename.RenamedOperands           169218398                       # Number of destination operands rename has renamed
system.cpu.rename.RunCycles                  30526023                       # Number of cycles rename is running
system.cpu.rename.SQFullEvents                   1084                       # Number of times rename has blocked due to SQ full
system.cpu.rename.SquashCycles                  66385                       # Number of cycles rename is squashing
system.cpu.rename.SquashedInsts                142087                       # Number of squashed instructions processed by rename
system.cpu.rename.UnblockCycles              48613522                       # Number of cycles rename is unblocking
system.cpu.rename.UndoneMaps                   451497                       # Number of HB maps that are undone due to squashing
system.cpu.rename.int_rename_lookups        118890082                       # Number of integer rename lookups
system.cpu.rename.serializeStallCycles           3099                       # count of cycles rename stalled for serializing inst
system.cpu.rename.serializingInsts                 66                       # count of serializing insts renamed
system.cpu.rename.skidInsts                  34184510                       # count of insts added to the skid buffer
system.cpu.rename.tempSerializingInsts             25                       # count of temporary serializing insts renamed
system.cpu.rename.vec_rename_lookups         50522187                       # Number of vector rename lookups
system.cpu.rob.rob_reads                    237090555                       # The number of ROB reads
system.cpu.rob.rob_writes                   237193671                       # The number of ROB writes
system.cpu.timesIdled                             368                       # Number of times that the entire CPU went into an idle state and unscheduled itself
system.cpu.vec_regfile_reads                 50397360                       # number of vector regfile reads
system.cpu.vec_regfile_writes                50397245                       # number of vector regfile writes
system.cpu.workload.numSyscalls                    16                       # Number of system calls
system.l2.prefetcher.num_hwpf_issued            11566                       # number of hwpf issued
system.l2.prefetcher.pfBufferHit                    2                       # number of redundant prefetches already in prefetch queue
system.l2.prefetcher.pfIdentified               11586                       # number of prefetch candidates identified
system.l2.prefetcher.pfInCache                      0                       # number of redundant prefetches already in cache/mshr dropped
system.l2.prefetcher.pfRemovedFull                  0                       # number of prefetches dropped due to prefetch queue size
system.l2.prefetcher.pfSpanPage                 14746                       # number of prefetches that crossed the page
system.membus.snoop_filter.hit_multi_requests            0                       # Number of requests hitting in the snoop filter with multiple (>1) holders of the requested data.
system.membus.snoop_filter.hit_multi_snoops            0                       # Number of snoops hitting in the snoop filter with multiple (>1) holders of the requested data.
system.membus.snoop_filter.hit_single_requests            0                       # Number of requests hitting in the snoop filter with a single holder of the requested data.
system.membus.snoop_filter.hit_single_snoops            0                       # Number of snoops hitting in the snoop filter with a single holder of the requested data.
system.membus.snoop_filter.tot_requests         12987                       # Total number of requests made to the snoop filter.
system.membus.snoop_filter.tot_snoops               0                       # Total number of snoops made to the snoop filter.
system.tol2bus.snoop_filter.hit_multi_requests            1                       # Number of requests hitting in the snoop filter with multiple (>1) holders of the requested data.
system.tol2bus.snoop_filter.hit_multi_snoops            0                       # Number of snoops hitting in the snoop filter with multiple (>1) holders of the requested data.
system.tol2bus.snoop_filter.hit_single_requests     16921816                       # Number of requests hitting in the snoop filter with a single holder of the requested data.
system.tol2bus.snoop_filter.hit_single_snoops           13                       # Number of snoops hitting in the snoop filter with a single holder of the requested data.
system.tol2bus.snoop_filter.tot_requests     33846013                       # Total number of requests made to the snoop filter.
system.tol2bus.snoop_filter.tot_snoops             13                       # Total number of snoops made to the snoop filter.
system.membus.pwrStateResidencyTicks::UNDEFINED  59350759500                       # Cumulative time (in ticks) in various power states
system.membus.trans_dist::ReadResp              12904                       # Transaction distribution
system.membus.trans_dist::ReadExReq                76                       # Transaction distribution
system.membus.trans_dist::ReadExResp               76                       # Transaction distribution
system.membus.trans_dist::ReadSharedReq         12904                       # Transaction distribution
system.membus.trans_dist::InvalidateReq             7                       # Transaction distribution
system.membus.pkt_count_system.l2.mem_side::system.mem_ctrls.port        25967                       # Packet count per connected master and slave (bytes)
system.membus.pkt_count::total                  25967                       # Packet count per connected master and slave (bytes)
system.membus.pkt_size_system.l2.mem_side::system.mem_ctrls.port       830720                       # Cumulative packet size per connected master and slave (bytes)
system.membus.pkt_size::total                  830720                       # Cumulative packet size per connected master and slave (bytes)
system.membus.snoops                                0                       # Total snoops (count)
system.membus.snoopTraffic                          0                       # Total snoop traffic (bytes)
system.membus.snoop_fanout::samples             12987                       # Request fanout histogram
system.membus.snoop_fanout::mean                    0                       # Request fanout histogram
system.membus.snoop_fanout::stdev                   0                       # Request fanout histogram
system.membus.snoop_fanout::underflows              0      0.00%      0.00% # Request fanout histogram
system.membus.snoop_fanout::0                   12987    100.00%    100.00% # Request fanout histogram
system.membus.snoop_fanout::1                       0      0.00%    100.00% # Request fanout histogram
system.membus.snoop_fanout::overflows               0      0.00%    100.00% # Request fanout histogram
system.membus.snoop_fanout::min_value               0                       # Request fanout histogram
system.membus.snoop_fanout::max_value               0                       # Request fanout histogram
system.membus.snoop_fanout::total               12987                       # Request fanout histogram
system.membus.respLayer1.occupancy           67007119                       # Layer occupancy (ticks)
system.membus.respLayer1.utilization              0.1                       # Layer utilization (%)
system.membus.reqLayer0.occupancy            15562957                       # Layer occupancy (ticks)
system.membus.reqLayer0.utilization               0.0                       # Layer utilization (%)
system.tol2bus.pwrStateResidencyTicks::UNDEFINED  59350759500                       # Cumulative time (in ticks) in various power states
system.tol2bus.trans_dist::ReadResp          16919998                       # Transaction distribution
system.tol2bus.trans_dist::WritebackDirty        68825                       # Transaction distribution
system.tol2bus.trans_dist::WritebackClean           90                       # Transaction distribution
system.tol2bus.trans_dist::CleanEvict        16852903                       # Transaction distribution
system.tol2bus.trans_dist::HardPFReq            10647                       # Transaction distribution
system.tol2bus.trans_dist::ReadExReq             4192                       # Transaction distribution
system.tol2bus.trans_dist::ReadExResp            4192                       # Transaction distribution
system.tol2bus.trans_dist::ReadCleanReq           425                       # Transaction distribution
system.tol2bus.trans_dist::ReadSharedReq     16919574                       # Transaction distribution
system.tol2bus.trans_dist::InvalidateReq            7                       # Transaction distribution
system.tol2bus.trans_dist::InvalidateResp            7                       # Transaction distribution
system.tol2bus.pkt_count_system.cpu.icache.mem_side::system.l2.cpu_side          939                       # Packet count per connected master and slave (bytes)
system.tol2bus.pkt_count_system.cpu.dcache.mem_side::system.l2.cpu_side     50769271                       # Packet count per connected master and slave (bytes)
system.tol2bus.pkt_count::total              50770210                       # Packet count per connected master and slave (bytes)
system.tol2bus.pkt_size_system.cpu.icache.mem_side::system.l2.cpu_side        32896                       # Cumulative packet size per connected master and slave (bytes)
system.tol2bus.pkt_size_system.cpu.dcache.mem_side::system.l2.cpu_side   1087525824                       # Cumulative packet size per connected master and slave (bytes)
system.tol2bus.pkt_size::total             1087558720                       # Cumulative packet size per connected master and slave (bytes)
system.tol2bus.snoops                           10650                       # Total snoops (count)
system.tol2bus.snoopTraffic                         0                       # Total snoop traffic (bytes)
system.tol2bus.snoop_fanout::samples         16934848                       # Request fanout histogram
system.tol2bus.snoop_fanout::mean            0.000001                       # Request fanout histogram
system.tol2bus.snoop_fanout::stdev           0.000941                       # Request fanout histogram
system.tol2bus.snoop_fanout::underflows             0      0.00%      0.00% # Request fanout histogram
system.tol2bus.snoop_fanout::0               16934833    100.00%    100.00% # Request fanout histogram
system.tol2bus.snoop_fanout::1                     15      0.00%    100.00% # Request fanout histogram
system.tol2bus.snoop_fanout::2                      0      0.00%    100.00% # Request fanout histogram
system.tol2bus.snoop_fanout::overflows              0      0.00%    100.00% # Request fanout histogram
system.tol2bus.snoop_fanout::min_value              0                       # Request fanout histogram
system.tol2bus.snoop_fanout::max_value              1                       # Request fanout histogram
system.tol2bus.snoop_fanout::total           16934848                       # Request fanout histogram
system.tol2bus.reqLayer0.occupancy        16996925108                       # Layer occupancy (ticks)
system.tol2bus.reqLayer0.utilization             28.6                       # Layer utilization (%)
system.tol2bus.respLayer1.occupancy       25385652500                       # Layer occupancy (ticks)
system.tol2bus.respLayer1.utilization            42.8                       # Layer utilization (%)
system.tol2bus.respLayer0.occupancy            636000                       # Layer occupancy (ticks)
system.tol2bus.respLayer0.utilization             0.0                       # Layer utilization (%)
system.voltage_domain.voltage                       1                       # Voltage in Volts
system.clk_domain.clock                          1000                       # Clock period in ticks
system.l2.pwrStateResidencyTicks::UNDEFINED  59350759500                       # Cumulative time (in ticks) in various power states
system.l2.demand_hits::.cpu.inst                    6                       # number of demand (read+write) hits
system.l2.demand_hits::.cpu.data             16907947                       # number of demand (read+write) hits
system.l2.demand_hits::.cpu.dcache.prefetcher         9028                       # number of demand (read+write) hits
system.l2.demand_hits::total                 16916981                       # number of demand (read+write) hits
system.l2.overall_hits::.cpu.inst                   6                       # number of overall hits
system.l2.overall_hits::.cpu.data            16907947                       # number of overall hits
system.l2.overall_hits::.cpu.dcache.prefetcher         9028                       # number of overall hits
system.l2.overall_hits::total                16916981                       # number of overall hits
system.l2.demand_misses::.cpu.inst                419                       # number of demand (read+write) misses
system.l2.demand_misses::.cpu.data               5761                       # number of demand (read+write) misses
system.l2.demand_misses::.cpu.dcache.prefetcher         1030                       # number of demand (read+write) misses
system.l2.demand_misses::total                   7210                       # number of demand (read+write) misses
system.l2.overall_misses::.cpu.inst               419                       # number of overall misses
system.l2.overall_misses::.cpu.data              5761                       # number of overall misses
system.l2.overall_misses::.cpu.dcache.prefetcher         1030                       # number of overall misses
system.l2.overall_misses::total                  7210                       # number of overall misses
system.l2.demand_miss_latency::.cpu.inst     33115500                       # number of demand (read+write) miss cycles
system.l2.demand_miss_latency::.cpu.data    454207500                       # number of demand (read+write) miss cycles
system.l2.demand_miss_latency::.cpu.dcache.prefetcher     83133417                       # number of demand (read+write) miss cycles
system.l2.demand_miss_latency::total        570456417                       # number of demand (read+write) miss cycles
system.l2.overall_miss_latency::.cpu.inst     33115500                       # number of overall miss cycles
system.l2.overall_miss_latency::.cpu.data    454207500                       # number of overall miss cycles
system.l2.overall_miss_latency::.cpu.dcache.prefetcher     83133417                       # number of overall miss cycles
system.l2.overall_miss_latency::total       570456417                       # number of overall miss cycles
system.l2.demand_accesses::.cpu.inst              425                       # number of demand (read+write) accesses
system.l2.demand_accesses::.cpu.data         16913708                       # number of demand (read+write) accesses
system.l2.demand_accesses::.cpu.dcache.prefetcher        10058                       # number of demand (read+write) accesses
system.l2.demand_accesses::total             16924191                       # number of demand (read+write) accesses
system.l2.overall_accesses::.cpu.inst             425                       # number of overall (read+write) accesses
system.l2.overall_accesses::.cpu.data        16913708                       # number of overall (read+write) accesses
system.l2.overall_accesses::.cpu.dcache.prefetcher        10058                       # number of overall (read+write) accesses
system.l2.overall_accesses::total            16924191                       # number of overall (read+write) accesses
system.l2.demand_miss_rate::.cpu.inst        0.985882                       # miss rate for demand accesses
system.l2.demand_miss_rate::.cpu.data        0.000341                       # miss rate for demand accesses
system.l2.demand_miss_rate::.cpu.dcache.prefetcher     0.102406                       # miss rate for demand accesses
system.l2.demand_miss_rate::total            0.000426                       # miss rate for demand accesses
system.l2.overall_miss_rate::.cpu.inst       0.985882                       # miss rate for overall accesses
system.l2.overall_miss_rate::.cpu.data       0.000341                       # miss rate for overall accesses
system.l2.overall_miss_rate::.cpu.dcache.prefetcher     0.102406                       # miss rate for overall accesses
system.l2.overall_miss_rate::total           0.000426                       # miss rate for overall accesses
system.l2.demand_avg_miss_latency::.cpu.inst 79034.606205                       # average overall miss latency
system.l2.demand_avg_miss_latency::.cpu.data 78841.780941                       # average overall miss latency
system.l2.demand_avg_miss_latency::.cpu.dcache.prefetcher 80712.055340                       # average overall miss latency
system.l2.demand_avg_miss_latency::total 79120.168793                       # average overall miss latency
system.l2.overall_avg_miss_latency::.cpu.inst 79034.606205                       # average overall miss latency
system.l2.overall_avg_miss_latency::.cpu.data 78841.780941                       # average overall miss latency
system.l2.overall_avg_miss_latency::.cpu.dcache.prefetcher 80712.055340                       # average overall miss latency
system.l2.overall_avg_miss_latency::total 79120.168793                       # average overall miss latency
system.l2.blocked_cycles::no_mshrs                  0                       # number of cycles access was blocked
system.l2.blocked_cycles::no_targets                0                       # number of cycles access was blocked
system.l2.blocked::no_mshrs                         0                       # number of cycles access was blocked
system.l2.blocked::no_targets                       0                       # number of cycles access was blocked
system.l2.avg_blocked_cycles::no_mshrs            nan                       # average number of cycles each access was blocked
system.l2.avg_blocked_cycles::no_targets          nan                       # average number of cycles each access was blocked
system.l2.demand_mshr_hits::.cpu.data             982                       # number of demand (read+write) MSHR hits
system.l2.demand_mshr_hits::.cpu.dcache.prefetcher          101                       # number of demand (read+write) MSHR hits
system.l2.demand_mshr_hits::total                1083                       # number of demand (read+write) MSHR hits
system.l2.overall_mshr_hits::.cpu.data            982                       # number of overall MSHR hits
system.l2.overall_mshr_hits::.cpu.dcache.prefetcher          101                       # number of overall MSHR hits
system.l2.overall_mshr_hits::total               1083                       # number of overall MSHR hits
system.l2.demand_mshr_misses::.cpu.inst           419                       # number of demand (read+write) MSHR misses
system.l2.demand_mshr_misses::.cpu.data          4779                       # number of demand (read+write) MSHR misses
system.l2.demand_mshr_misses::.cpu.dcache.prefetcher          929                       # number of demand (read+write) MSHR misses
system.l2.demand_mshr_misses::total              6127                       # number of demand (read+write) MSHR misses
system.l2.overall_mshr_misses::.cpu.inst          419                       # number of overall MSHR misses
system.l2.overall_mshr_misses::.cpu.data         4779                       # number of overall MSHR misses
system.l2.overall_mshr_misses::.cpu.dcache.prefetcher          929                       # number of overall MSHR misses
system.l2.overall_mshr_misses::.l2.prefetcher         6854                       # number of overall MSHR misses
system.l2.overall_mshr_misses::total            12981                       # number of overall MSHR misses
system.l2.demand_mshr_miss_latency::.cpu.inst     28935500                       # number of demand (read+write) MSHR miss cycles
system.l2.demand_mshr_miss_latency::.cpu.data    360011500                       # number of demand (read+write) MSHR miss cycles
system.l2.demand_mshr_miss_latency::.cpu.dcache.prefetcher     69690688                       # number of demand (read+write) MSHR miss cycles
system.l2.demand_mshr_miss_latency::total    458637688                       # number of demand (read+write) MSHR miss cycles
system.l2.overall_mshr_miss_latency::.cpu.inst     28935500                       # number of overall MSHR miss cycles
system.l2.overall_mshr_miss_latency::.cpu.data    360011500                       # number of overall MSHR miss cycles
system.l2.overall_mshr_miss_latency::.cpu.dcache.prefetcher     69690688                       # number of overall MSHR miss cycles
system.l2.overall_mshr_miss_latency::.l2.prefetcher    448686606                       # number of overall MSHR miss cycles
system.l2.overall_mshr_miss_latency::total    907324294                       # number of overall MSHR miss cycles
system.l2.demand_mshr_miss_rate::.cpu.inst     0.985882                       # mshr miss rate for demand accesses
system.l2.demand_mshr_miss_rate::.cpu.data     0.000283                       # mshr miss rate for demand accesses
system.l2.demand_mshr_miss_rate::.cpu.dcache.prefetcher     0.092364                       # mshr miss rate for demand accesses
system.l2.demand_mshr_miss_rate::total       0.000362                       # mshr miss rate for demand accesses
system.l2.overall_mshr_miss_rate::.cpu.inst     0.985882                       # mshr miss rate for overall accesses
system.l2.overall_mshr_miss_rate::.cpu.data     0.000283                       # mshr miss rate for overall accesses
system.l2.overall_mshr_miss_rate::.cpu.dcache.prefetcher     0.092364                       # mshr miss rate for overall accesses
system.l2.overall_mshr_miss_rate::.l2.prefetcher          inf                       # mshr miss rate for overall accesses
system.l2.overall_mshr_miss_rate::total      0.000767                       # mshr miss rate for overall accesses
system.l2.demand_avg_mshr_miss_latency::.cpu.inst 69058.472554                       # average overall mshr miss latency
system.l2.demand_avg_mshr_miss_latency::.cpu.data 75331.973216                       # average overall mshr miss latency
system.l2.demand_avg_mshr_miss_latency::.cpu.dcache.prefetcher 75016.886975                       # average overall mshr miss latency
system.l2.demand_avg_mshr_miss_latency::total 74855.180023                       # average overall mshr miss latency
system.l2.overall_avg_mshr_miss_latency::.cpu.inst 69058.472554                       # average overall mshr miss latency
system.l2.overall_avg_mshr_miss_latency::.cpu.data 75331.973216                       # average overall mshr miss latency
system.l2.overall_avg_mshr_miss_latency::.cpu.dcache.prefetcher 75016.886975                       # average overall mshr miss latency
system.l2.overall_avg_mshr_miss_latency::.l2.prefetcher 65463.467464                       # average overall mshr miss latency
system.l2.overall_avg_mshr_miss_latency::total 69896.332640                       # average overall mshr miss latency
system.l2.replacements                              3                       # number of replacements
system.l2.WritebackDirty_hits::.writebacks        68825                       # number of WritebackDirty hits
system.l2.WritebackDirty_hits::total            68825                       # number of WritebackDirty hits
system.l2.WritebackDirty_accesses::.writebacks        68825                       # number of WritebackDirty accesses(hits+misses)
system.l2.WritebackDirty_accesses::total        68825                       # number of WritebackDirty accesses(hits+misses)
system.l2.WritebackClean_hits::.writebacks           90                       # number of WritebackClean hits
system.l2.WritebackClean_hits::total               90                       # number of WritebackClean hits
system.l2.WritebackClean_accesses::.writebacks           90                       # number of WritebackClean accesses(hits+misses)
system.l2.WritebackClean_accesses::total           90                       # number of WritebackClean accesses(hits+misses)
[...]
system.cpu.dcache.overall_mshr_hits::.cpu.data       118827                       # number of overall MSHR hits
system.cpu.dcache.overall_mshr_hits::total       118827                       # number of overall MSHR hits
system.cpu.dcache.demand_mshr_misses::.cpu.data     16913713                       # number of demand (read+write) MSHR misses
system.cpu.dcache.demand_mshr_misses::total     16913713                       # number of demand (read+write) MSHR misses
system.cpu.dcache.overall_mshr_misses::.cpu.data     16913713                       # number of overall MSHR misses
system.cpu.dcache.overall_mshr_misses::.cpu.dcache.prefetcher        10058                       # number of overall MSHR misses
system.cpu.dcache.overall_mshr_misses::total     16923771                       # number of overall MSHR misses
system.cpu.dcache.demand_mshr_miss_latency::.cpu.data 215749887226                       # number of demand (read+write) MSHR miss cycles
system.cpu.dcache.demand_mshr_miss_latency::total 215749887226                       # number of demand (read+write) MSHR miss cycles
system.cpu.dcache.overall_mshr_miss_latency::.cpu.data 215749887226                       # number of overall MSHR miss cycles
system.cpu.dcache.overall_mshr_miss_latency::.cpu.dcache.prefetcher    192561103                       # number of overall MSHR miss cycles
system.cpu.dcache.overall_mshr_miss_latency::total 215942448329                       # number of overall MSHR miss cycles
system.cpu.dcache.demand_mshr_miss_rate::.cpu.data     0.502061                       # mshr miss rate for demand accesses
system.cpu.dcache.demand_mshr_miss_rate::total     0.502061                       # mshr miss rate for demand accesses
system.cpu.dcache.overall_mshr_miss_rate::.cpu.data     0.502061                       # mshr miss rate for overall accesses
system.cpu.dcache.overall_mshr_miss_rate::.cpu.dcache.prefetcher          inf                       # mshr miss rate for overall accesses
system.cpu.dcache.overall_mshr_miss_rate::total     0.502359                       # mshr miss rate for overall accesses
system.cpu.dcache.demand_avg_mshr_miss_latency::.cpu.data 12755.915110                       # average overall mshr miss latency
system.cpu.dcache.demand_avg_mshr_miss_latency::total 12755.915110                       # average overall mshr miss latency
system.cpu.dcache.overall_avg_mshr_miss_latency::.cpu.data 12755.915110                       # average overall mshr miss latency
system.cpu.dcache.overall_avg_mshr_miss_latency::.cpu.dcache.prefetcher 19145.068900                       # average overall mshr miss latency
system.cpu.dcache.overall_avg_mshr_miss_latency::total 12759.712261                       # average overall mshr miss latency
system.cpu.dcache.replacements               16921725                       # number of replacements
system.cpu.dcache.ReadReq_hits::.cpu.data     16593630                       # number of ReadReq hits
system.cpu.dcache.ReadReq_hits::total        16593630                       # number of ReadReq hits
system.cpu.dcache.ReadReq_misses::.cpu.data     17027937                       # number of ReadReq misses
system.cpu.dcache.ReadReq_misses::total      17027937                       # number of ReadReq misses
system.cpu.dcache.ReadReq_miss_latency::.cpu.data 233718117000                       # number of ReadReq miss cycles
system.cpu.dcache.ReadReq_miss_latency::total 233718117000                       # number of ReadReq miss cycles
system.cpu.dcache.ReadReq_accesses::.cpu.data     33621567                       # number of ReadReq accesses(hits+misses)
system.cpu.dcache.ReadReq_accesses::total     33621567                       # number of ReadReq accesses(hits+misses)
system.cpu.dcache.ReadReq_miss_rate::.cpu.data     0.506459                       # miss rate for ReadReq accesses
system.cpu.dcache.ReadReq_miss_rate::total     0.506459                       # miss rate for ReadReq accesses
system.cpu.dcache.ReadReq_avg_miss_latency::.cpu.data 13725.568576                       # average ReadReq miss latency
system.cpu.dcache.ReadReq_avg_miss_latency::total 13725.568576                       # average ReadReq miss latency
system.cpu.dcache.ReadReq_mshr_hits::.cpu.data       118422                       # number of ReadReq MSHR hits
system.cpu.dcache.ReadReq_mshr_hits::total       118422                       # number of ReadReq MSHR hits
system.cpu.dcache.ReadReq_mshr_misses::.cpu.data     16909515                       # number of ReadReq MSHR misses
system.cpu.dcache.ReadReq_mshr_misses::total     16909515                       # number of ReadReq MSHR misses
system.cpu.dcache.ReadReq_mshr_miss_latency::.cpu.data 215691498500                       # number of ReadReq MSHR miss cycles
system.cpu.dcache.ReadReq_mshr_miss_latency::total 215691498500                       # number of ReadReq MSHR miss cycles
system.cpu.dcache.ReadReq_mshr_miss_rate::.cpu.data     0.502937                       # mshr miss rate for ReadReq accesses
system.cpu.dcache.ReadReq_mshr_miss_rate::total     0.502937                       # mshr miss rate for ReadReq accesses
system.cpu.dcache.ReadReq_avg_mshr_miss_latency::.cpu.data 12755.628917                       # average ReadReq mshr miss latency
system.cpu.dcache.ReadReq_avg_mshr_miss_latency::total 12755.628917                       # average ReadReq mshr miss latency
system.cpu.dcache.WriteReq_hits::.cpu.data        62408                       # number of WriteReq hits
system.cpu.dcache.WriteReq_hits::total          62408                       # number of WriteReq hits
system.cpu.dcache.WriteReq_misses::.cpu.data         4596                       # number of WriteReq misses
system.cpu.dcache.WriteReq_misses::total         4596                       # number of WriteReq misses
system.cpu.dcache.WriteReq_miss_latency::.cpu.data     82165213                       # number of WriteReq miss cycles
system.cpu.dcache.WriteReq_miss_latency::total     82165213                       # number of WriteReq miss cycles
system.cpu.dcache.WriteReq_accesses::.cpu.data        67004                       # number of WriteReq accesses(hits+misses)
system.cpu.dcache.WriteReq_accesses::total        67004                       # number of WriteReq accesses(hits+misses)
system.cpu.dcache.WriteReq_miss_rate::.cpu.data     0.068593                       # miss rate for WriteReq accesses
system.cpu.dcache.WriteReq_miss_rate::total     0.068593                       # miss rate for WriteReq accesses
system.cpu.dcache.WriteReq_avg_miss_latency::.cpu.data 17877.548520                       # average WriteReq miss latency
system.cpu.dcache.WriteReq_avg_miss_latency::total 17877.548520                       # average WriteReq miss latency
system.cpu.dcache.WriteReq_mshr_hits::.cpu.data          405                       # number of WriteReq MSHR hits
system.cpu.dcache.WriteReq_mshr_hits::total          405                       # number of WriteReq MSHR hits
system.cpu.dcache.WriteReq_mshr_misses::.cpu.data         4191                       # number of WriteReq MSHR misses
system.cpu.dcache.WriteReq_mshr_misses::total         4191                       # number of WriteReq MSHR misses
system.cpu.dcache.WriteReq_mshr_miss_latency::.cpu.data     58173729                       # number of WriteReq MSHR miss cycles
system.cpu.dcache.WriteReq_mshr_miss_latency::total     58173729                       # number of WriteReq MSHR miss cycles
system.cpu.dcache.WriteReq_mshr_miss_rate::.cpu.data     0.062549                       # mshr miss rate for WriteReq accesses
system.cpu.dcache.WriteReq_mshr_miss_rate::total     0.062549                       # mshr miss rate for WriteReq accesses
system.cpu.dcache.WriteReq_avg_mshr_miss_latency::.cpu.data 13880.632069                       # average WriteReq mshr miss latency
system.cpu.dcache.WriteReq_avg_mshr_miss_latency::total 13880.632069                       # average WriteReq mshr miss latency
system.cpu.dcache.HardPFReq_mshr_misses::.cpu.dcache.prefetcher        10058                       # number of HardPFReq MSHR misses
system.cpu.dcache.HardPFReq_mshr_misses::total        10058                       # number of HardPFReq MSHR misses
system.cpu.dcache.HardPFReq_mshr_miss_latency::.cpu.dcache.prefetcher    192561103                       # number of HardPFReq MSHR miss cycles
system.cpu.dcache.HardPFReq_mshr_miss_latency::total    192561103                       # number of HardPFReq MSHR miss cycles
system.cpu.dcache.HardPFReq_mshr_miss_rate::.cpu.dcache.prefetcher          inf                       # mshr miss rate for HardPFReq accesses
system.cpu.dcache.HardPFReq_mshr_miss_rate::total          inf                       # mshr miss rate for HardPFReq accesses
system.cpu.dcache.HardPFReq_avg_mshr_miss_latency::.cpu.dcache.prefetcher 19145.068900                       # average HardPFReq mshr miss latency
system.cpu.dcache.HardPFReq_avg_mshr_miss_latency::total 19145.068900                       # average HardPFReq mshr miss latency
system.cpu.dcache.WriteLineReq_misses::.cpu.data            7                       # number of WriteLineReq misses
system.cpu.dcache.WriteLineReq_misses::total            7                       # number of WriteLineReq misses
system.cpu.dcache.WriteLineReq_miss_latency::.cpu.data       221997                       # number of WriteLineReq miss cycles
system.cpu.dcache.WriteLineReq_miss_latency::total       221997                       # number of WriteLineReq miss cycles
system.cpu.dcache.WriteLineReq_accesses::.cpu.data            7                       # number of WriteLineReq accesses(hits+misses)
system.cpu.dcache.WriteLineReq_accesses::total            7                       # number of WriteLineReq accesses(hits+misses)
system.cpu.dcache.WriteLineReq_miss_rate::.cpu.data            1                       # miss rate for WriteLineReq accesses
system.cpu.dcache.WriteLineReq_miss_rate::total            1                       # miss rate for WriteLineReq accesses
system.cpu.dcache.WriteLineReq_avg_miss_latency::.cpu.data 31713.857143                       # average WriteLineReq miss latency
system.cpu.dcache.WriteLineReq_avg_miss_latency::total 31713.857143                       # average WriteLineReq miss latency
system.cpu.dcache.WriteLineReq_mshr_misses::.cpu.data            7                       # number of WriteLineReq MSHR misses
system.cpu.dcache.WriteLineReq_mshr_misses::total            7                       # number of WriteLineReq MSHR misses
system.cpu.dcache.WriteLineReq_mshr_miss_latency::.cpu.data       214997                       # number of WriteLineReq MSHR miss cycles
system.cpu.dcache.WriteLineReq_mshr_miss_latency::total       214997                       # number of WriteLineReq MSHR miss cycles
system.cpu.dcache.WriteLineReq_mshr_miss_rate::.cpu.data            1                       # mshr miss rate for WriteLineReq accesses
system.cpu.dcache.WriteLineReq_mshr_miss_rate::total            1                       # mshr miss rate for WriteLineReq accesses
system.cpu.dcache.WriteLineReq_avg_mshr_miss_latency::.cpu.data 30713.857143                       # average WriteLineReq mshr miss latency
system.cpu.dcache.WriteLineReq_avg_mshr_miss_latency::total 30713.857143                       # average WriteLineReq mshr miss latency
system.cpu.dcache.LoadLockedReq_hits::.cpu.data            3                       # number of LoadLockedReq hits
system.cpu.dcache.LoadLockedReq_hits::total            3                       # number of LoadLockedReq hits
system.cpu.dcache.LoadLockedReq_misses::.cpu.data            1                       # number of LoadLockedReq misses
system.cpu.dcache.LoadLockedReq_misses::total            1                       # number of LoadLockedReq misses
system.cpu.dcache.LoadLockedReq_miss_latency::.cpu.data        76000                       # number of LoadLockedReq miss cycles
system.cpu.dcache.LoadLockedReq_miss_latency::total        76000                       # number of LoadLockedReq miss cycles
system.cpu.dcache.LoadLockedReq_accesses::.cpu.data            4                       # number of LoadLockedReq accesses(hits+misses)
system.cpu.dcache.LoadLockedReq_accesses::total            4                       # number of LoadLockedReq accesses(hits+misses)
system.cpu.dcache.LoadLockedReq_miss_rate::.cpu.data     0.250000                       # miss rate for LoadLockedReq accesses
system.cpu.dcache.LoadLockedReq_miss_rate::total     0.250000                       # miss rate for LoadLockedReq accesses
system.cpu.dcache.LoadLockedReq_avg_miss_latency::.cpu.data        76000                       # average LoadLockedReq miss latency
system.cpu.dcache.LoadLockedReq_avg_miss_latency::total        76000                       # average LoadLockedReq miss latency
system.cpu.dcache.LoadLockedReq_mshr_misses::.cpu.data            1                       # number of LoadLockedReq MSHR misses
system.cpu.dcache.LoadLockedReq_mshr_misses::total            1                       # number of LoadLockedReq MSHR misses
system.cpu.dcache.LoadLockedReq_mshr_miss_latency::.cpu.data        75000                       # number of LoadLockedReq MSHR miss cycles
system.cpu.dcache.LoadLockedReq_mshr_miss_latency::total        75000                       # number of LoadLockedReq MSHR miss cycles
system.cpu.dcache.LoadLockedReq_mshr_miss_rate::.cpu.data     0.250000                       # mshr miss rate for LoadLockedReq accesses
system.cpu.dcache.LoadLockedReq_mshr_miss_rate::total     0.250000                       # mshr miss rate for LoadLockedReq accesses
system.cpu.dcache.LoadLockedReq_avg_mshr_miss_latency::.cpu.data        75000                       # average LoadLockedReq mshr miss latency
system.cpu.dcache.LoadLockedReq_avg_mshr_miss_latency::total        75000                       # average LoadLockedReq mshr miss latency
system.cpu.dcache.StoreCondReq_hits::.cpu.data            4                       # number of StoreCondReq hits
system.cpu.dcache.StoreCondReq_hits::total            4                       # number of StoreCondReq hits
system.cpu.dcache.StoreCondReq_accesses::.cpu.data            4                       # number of StoreCondReq accesses(hits+misses)
system.cpu.dcache.StoreCondReq_accesses::total            4                       # number of StoreCondReq accesses(hits+misses)
system.cpu.dcache.SwapReq_hits::.cpu.data           24                       # number of SwapReq hits
system.cpu.dcache.SwapReq_hits::total              24                       # number of SwapReq hits
system.cpu.dcache.SwapReq_misses::.cpu.data            2                       # number of SwapReq misses
system.cpu.dcache.SwapReq_misses::total             2                       # number of SwapReq misses
system.cpu.dcache.SwapReq_miss_latency::.cpu.data        80500                       # number of SwapReq miss cycles
system.cpu.dcache.SwapReq_miss_latency::total        80500                       # number of SwapReq miss cycles
system.cpu.dcache.SwapReq_accesses::.cpu.data           26                       # number of SwapReq accesses(hits+misses)
system.cpu.dcache.SwapReq_accesses::total           26                       # number of SwapReq accesses(hits+misses)
system.cpu.dcache.SwapReq_miss_rate::.cpu.data     0.076923                       # miss rate for SwapReq accesses
system.cpu.dcache.SwapReq_miss_rate::total     0.076923                       # miss rate for SwapReq accesses
system.cpu.dcache.SwapReq_avg_miss_latency::.cpu.data        40250                       # average SwapReq miss latency
system.cpu.dcache.SwapReq_avg_miss_latency::total        40250                       # average SwapReq miss latency
system.cpu.dcache.SwapReq_mshr_hits::.cpu.data            1                       # number of SwapReq MSHR hits
system.cpu.dcache.SwapReq_mshr_hits::total            1                       # number of SwapReq MSHR hits
system.cpu.dcache.SwapReq_mshr_misses::.cpu.data            1                       # number of SwapReq MSHR misses
system.cpu.dcache.SwapReq_mshr_misses::total            1                       # number of SwapReq MSHR misses
system.cpu.dcache.SwapReq_mshr_miss_latency::.cpu.data        12000                       # number of SwapReq MSHR miss cycles
system.cpu.dcache.SwapReq_mshr_miss_latency::total        12000                       # number of SwapReq MSHR miss cycles
system.cpu.dcache.SwapReq_mshr_miss_rate::.cpu.data     0.038462                       # mshr miss rate for SwapReq accesses
system.cpu.dcache.SwapReq_mshr_miss_rate::total     0.038462                       # mshr miss rate for SwapReq accesses
system.cpu.dcache.SwapReq_avg_mshr_miss_latency::.cpu.data        12000                       # average SwapReq mshr miss latency
system.cpu.dcache.SwapReq_avg_mshr_miss_latency::total        12000                       # average SwapReq mshr miss latency
system.cpu.dcache.prefetcher.pwrStateResidencyTicks::UNDEFINED  59350759500                       # Cumulative time (in ticks) in various power states
system.cpu.dcache.tags.pwrStateResidencyTicks::UNDEFINED  59350759500                       # Cumulative time (in ticks) in various power states
system.cpu.dcache.tags.tagsinuse          2043.093398                       # Cycle average of tags in use
system.cpu.dcache.tags.total_refs            33579842                       # Total number of references to valid blocks.
system.cpu.dcache.tags.sampled_refs          16923773                       # Sample count of references to valid blocks.
system.cpu.dcache.tags.avg_refs              1.984182                       # Average number of references to valid blocks.
system.cpu.dcache.tags.warmup_cycle            178500                       # Cycle when the warmup percentage was hit.
system.cpu.dcache.tags.occ_blocks::.cpu.data  2022.513088                       # Average occupied blocks per requestor
system.cpu.dcache.tags.occ_blocks::.cpu.dcache.prefetcher    20.580310                       # Average occupied blocks per requestor
system.cpu.dcache.tags.occ_percent::.cpu.data     0.987555                       # Average percentage of cache occupancy
system.cpu.dcache.tags.occ_percent::.cpu.dcache.prefetcher     0.010049                       # Average percentage of cache occupancy
system.cpu.dcache.tags.occ_percent::total     0.997604                       # Average percentage of cache occupancy
system.cpu.dcache.tags.occ_task_id_blocks::1022           29                       # Occupied blocks per task id
system.cpu.dcache.tags.occ_task_id_blocks::1024         2019                       # Occupied blocks per task id
system.cpu.dcache.tags.age_task_id_blocks_1022::0           19                       # Occupied blocks per task id
system.cpu.dcache.tags.age_task_id_blocks_1022::1            5                       # Occupied blocks per task id
system.cpu.dcache.tags.age_task_id_blocks_1022::2            5                       # Occupied blocks per task id
system.cpu.dcache.tags.age_task_id_blocks_1024::0          194                       # Occupied blocks per task id
system.cpu.dcache.tags.age_task_id_blocks_1024::1          792                       # Occupied blocks per task id
system.cpu.dcache.tags.age_task_id_blocks_1024::2         1033                       # Occupied blocks per task id
system.cpu.dcache.tags.occ_task_id_percent::1022     0.014160                       # Percentage of cache occupancy per task id
system.cpu.dcache.tags.occ_task_id_percent::1024     0.985840                       # Percentage of cache occupancy per task id
system.cpu.dcache.tags.tag_accesses          84300997                       # Number of tag accesses
system.cpu.dcache.tags.data_accesses         84300997                       # Number of data accesses

---------- End Simulation Statistics   ----------
