
---------- Begin Simulation Statistics ----------
final_tick                                58497059500                       # Number of ticks from beginning of simulation (restored from checkpoints and never reset)
host_inst_rate                                 377434                       # Simulator instruction rate (inst/s)
host_mem_usage                                8497324                       # Number of bytes of host memory used
host_op_rate                                   439852                       # Simulator op (including micro ops) rate (op/s)
host_seconds                                   268.81                       # Real time elapsed on the host
host_tick_rate                              217611243                       # Simulator tick rate (ticks/s)
sim_freq                                 1000000000000                       # Frequency of simulated ticks
sim_insts                                   101459739                       # Number of instructions simulated
sim_ops                                     118238466                       # Number of ops (including micro ops) simulated
sim_seconds                                  0.058497                       # Number of seconds simulated
sim_ticks                                 58497059500                       # Number of ticks simulated
system.cpu.branchPred.BTBCorrect                    0                       # Number of correct BTB predictions (this stat may not work properly.
system.cpu.branchPred.BTBHitPct             99.997357                       # BTB Hit Percentage
system.cpu.branchPred.BTBHits                17213892                       # Number of BTB hits
system.cpu.branchPred.BTBLookups             17214347                       # Number of BTB lookups
system.cpu.branchPred.RASInCorrect                  1                       # Number of incorrect RAS predictions.
system.cpu.branchPred.condIncorrect             66558                       # Number of conditional branches incorrect
system.cpu.branchPred.condPredicted          17281644                       # Number of conditional branches predicted
system.cpu.branchPred.indirectHits                  0                       # Number of indirect target hits.
system.cpu.branchPred.indirectLookups             104                       # Number of indirect predictor lookups.
system.cpu.branchPred.indirectMisses              104                       # Number of indirect misses.
system.cpu.branchPred.lookups                17282630                       # Number of BP lookups
system.cpu.branchPred.usedRAS                     323                       # Number of times the RAS was used to get a target.
system.cpu.branchPredindirectMispredicted           48                       # Number of mispredicted indirect branches.
system.cpu.cc_regfile_reads                  50728518                       # number of cc regfile reads
system.cpu.cc_regfile_writes                 50729937                       # number of cc regfile writes
system.cpu.commit.amos                             26                       # Number of atomic instructions committed
system.cpu.commit.branchMispredicts             66345                       # The number of times a branch was mispredicted
system.cpu.commit.branches                   16910249                       # Number of branches committed
system.cpu.commit.bw_lim_events                 70396                       # number cycles where commit BW limit reached
system.cpu.commit.commitNonSpecStalls              77                       # The number of times commit has been forced to stall to communicate backwards
system.cpu.commit.commitSquashedInsts          253018                       # The number of squashed insts skipped by commit
system.cpu.commit.committedInsts            101525543                       # Number of instructions committed
system.cpu.commit.committedOps              118304270                       # Number of ops (including micro ops) committed
system.cpu.commit.committed_per_cycle::samples    116886210                       # Number of insts commited each cycle
system.cpu.commit.committed_per_cycle::mean     1.012132                       # Number of insts commited each cycle
system.cpu.commit.committed_per_cycle::stdev     1.666878                       # Number of insts commited each cycle
system.cpu.commit.committed_per_cycle::underflows            0      0.00%      0.00% # Number of insts commited each cycle
system.cpu.commit.committed_per_cycle::0     83851643     71.74%     71.74% # Number of insts commited each cycle
system.cpu.commit.committed_per_cycle::1        10725      0.01%     71.75% # Number of insts commited each cycle
system.cpu.commit.committed_per_cycle::2       425905      0.36%     72.11% # Number of insts commited each cycle
system.cpu.commit.committed_per_cycle::3     15890795     13.60%     85.71% # Number of insts commited each cycle
system.cpu.commit.committed_per_cycle::4     15694309     13.43%     99.13% # Number of insts commited each cycle
system.cpu.commit.committed_per_cycle::5        82998      0.07%     99.20% # Number of insts commited each cycle
system.cpu.commit.committed_per_cycle::6         2117      0.00%     99.21% # Number of insts commited each cycle
system.cpu.commit.committed_per_cycle::7       857322      0.73%     99.94% # Number of insts commited each cycle
system.cpu.commit.committed_per_cycle::8        70396      0.06%    100.00% # Number of insts commited each cycle
system.cpu.commit.committed_per_cycle::overflows            0      0.00%    100.00% # Number of insts commited each cycle
system.cpu.commit.committed_per_cycle::min_value            0                       # Number of insts commited each cycle
system.cpu.commit.committed_per_cycle::max_value            8                       # Number of insts commited each cycle
system.cpu.commit.committed_per_cycle::total    116886210                       # Number of insts commited each cycle
system.cpu.commit.fp_insts                          0                       # Number of committed floating point instructions.
system.cpu.commit.function_calls                  183                       # Number of function calls committed.
system.cpu.commit.int_insts                  84551794                       # Number of committed integer instructions.
system.cpu.commit.loads                      33621209                       # Number of loads committed
system.cpu.commit.membars                          30                       # Number of memory barriers committed
system.cpu.commit.op_class_0::No_OpClass           33      0.00%      0.00% # Class of committed instruction
system.cpu.commit.op_class_0::IntAlu         67838704     57.34%     57.34% # Class of committed instruction
system.cpu.commit.op_class_0::IntMult               9      0.00%     57.34% # Class of committed instruction
system.cpu.commit.op_class_0::IntDiv                3      0.00%     57.34% # Class of committed instruction
system.cpu.commit.op_class_0::FloatAdd              0      0.00%     57.34% # Class of committed instruction
system.cpu.commit.op_class_0::FloatCmp              0      0.00%     57.34% # Class of committed instruction
system.cpu.commit.op_class_0::FloatCvt              1      0.00%     57.34% # Class of committed instruction
system.cpu.commit.op_class_0::FloatMult             0      0.00%     57.34% # Class of committed instruction
system.cpu.commit.op_class_0::FloatMultAcc     16777216     14.18%     71.52% # Class of committed instruction
system.cpu.commit.op_class_0::FloatDiv              1      0.00%     71.52% # Class of committed instruction
system.cpu.commit.op_class_0::FloatMisc             1      0.00%     71.52% # Class of committed instruction
system.cpu.commit.op_class_0::FloatSqrt             0      0.00%     71.52% # Class of committed instruction
system.cpu.commit.op_class_0::SimdAdd              13      0.00%     71.52% # Class of committed instruction
system.cpu.commit.op_class_0::SimdAddAcc            0      0.00%     71.52% # Class of committed instruction
system.cpu.commit.op_class_0::SimdAlu              12      0.00%     71.52% # Class of committed instruction
system.cpu.commit.op_class_0::SimdCmp              12      0.00%     71.52% # Class of committed instruction
system.cpu.commit.op_class_0::SimdCvt               0      0.00%     71.52% # Class of committed instruction
system.cpu.commit.op_class_0::SimdMisc             15      0.00%     71.52% # Class of committed instruction
system.cpu.commit.op_class_0::SimdMult              0      0.00%     71.52% # Class of committed instruction
system.cpu.commit.op_class_0::SimdMultAcc            0      0.00%     71.52% # Class of committed instruction
system.cpu.commit.op_class_0::SimdShift             0      0.00%     71.52% # Class of committed instruction
system.cpu.commit.op_class_0::SimdShiftAcc            0      0.00%     71.52% # Class of committed instruction
system.cpu.commit.op_class_0::SimdDiv               0      0.00%     71.52% # Class of committed instruction
system.cpu.commit.op_class_0::SimdSqrt              0      0.00%     71.52% # Class of committed instruction
system.cpu.commit.op_class_0::SimdFloatAdd            0      0.00%     71.52% # Class of committed instruction
system.cpu.commit.op_class_0::SimdFloatAlu            0      0.00%     71.52% # Class of committed instruction
system.cpu.commit.op_class_0::SimdFloatCmp            0      0.00%     71.52% # Class of committed instruction
system.cpu.commit.op_class_0::SimdFloatCvt            0      0.00%     71.52% # Class of committed instruction
system.cpu.commit.op_class_0::SimdFloatDiv            0      0.00%     71.52% # Class of committed instruction
system.cpu.commit.op_class_0::SimdFloatMisc            0      0.00%     71.52% # Class of committed instruction
system.cpu.commit.op_class_0::SimdFloatMult            0      0.00%     71.52% # Class of committed instruction
system.cpu.commit.op_class_0::SimdFloatMultAcc            0      0.00%     71.52% # Class of committed instruction
system.cpu.commit.op_class_0::SimdFloatSqrt            0      0.00%     71.52% # Class of committed instruction
system.cpu.commit.op_class_0::SimdReduceAdd            0      0.00%     71.52% # Class of committed instruction
system.cpu.commit.op_class_0::SimdReduceAlu            0      0.00%     71.52% # Class of committed instruction
system.cpu.commit.op_class_0::SimdReduceCmp            0      0.00%     71.52% # Class of committed instruction
system.cpu.commit.op_class_0::SimdFloatReduceAdd            0      0.00%     71.52% # Class of committed instruction
system.cpu.commit.op_class_0::SimdFloatReduceCmp            0      0.00%     71.52% # Class of committed instruction
system.cpu.commit.op_class_0::SimdAes               0      0.00%     71.52% # Class of committed instruction
system.cpu.commit.op_class_0::SimdAesMix            0      0.00%     71.52% # Class of committed instruction
system.cpu.commit.op_class_0::SimdSha1Hash            0      0.00%     71.52% # Class of committed instruction
system.cpu.commit.op_class_0::SimdSha1Hash2            0      0.00%     71.52% # Class of committed instruction
system.cpu.commit.op_class_0::SimdSha256Hash            0      0.00%     71.52% # Class of committed instruction
system.cpu.commit.op_class_0::SimdSha256Hash2            0      0.00%     71.52% # Class of committed instruction
system.cpu.commit.op_class_0::SimdShaSigma2            0      0.00%     71.52% # Class of committed instruction
system.cpu.commit.op_class_0::SimdShaSigma3            0      0.00%     71.52% # Class of committed instruction
system.cpu.commit.op_class_0::SimdPredAlu            0      0.00%     71.52% # Class of committed instruction
system.cpu.commit.op_class_0::MemRead        33621209     28.42%     99.94% # Class of committed instruction
system.cpu.commit.op_class_0::MemWrite          67041      0.06%    100.00% # Class of committed instruction
system.cpu.commit.op_class_0::FloatMemRead            0      0.00%    100.00% # Class of committed instruction
system.cpu.commit.op_class_0::FloatMemWrite            0      0.00%    100.00% # Class of committed instruction
system.cpu.commit.op_class_0::IprAccess             0      0.00%    100.00% # Class of committed instruction
system.cpu.commit.op_class_0::InstPrefetch            0      0.00%    100.00% # Class of committed instruction
system.cpu.commit.op_class_0::total         118304270                       # Class of committed instruction
system.cpu.commit.refs                       33688250                       # Number of memory references committed
system.cpu.commit.swp_count                         0                       # Number of s/w prefetches committed
system.cpu.commit.vec_insts                  50462872                       # Number of committed Vector instructions.
system.cpu.committedInsts                   101459739                       # Number of Instructions Simulated
system.cpu.committedOps                     118238466                       # Number of Ops (including micro ops) Simulated
system.cpu.cpi                               1.153109                       # CPI: Cycles Per Instruction
system.cpu.cpi_total                         1.153109                       # CPI: Total CPI of All Threads
system.cpu.dcache.prefetcher.num_hwpf_issued       684677                       # number of hwpf issued
system.cpu.dcache.prefetcher.pfBufferHit       270242                       # number of redundant prefetches already in prefetch queue
system.cpu.dcache.prefetcher.pfIdentified     32401607                       # number of prefetch candidates identified
system.cpu.dcache.prefetcher.pfInCache              0                       # number of redundant prefetches already in cache/mshr dropped
system.cpu.dcache.prefetcher.pfRemovedFull     31392174                       # number of prefetches dropped due to prefetch queue size
system.cpu.dcache.prefetcher.pfSpanPage        778941                       # number of prefetches that crossed the page
system.cpu.decode.BlockedCycles              63048000                       # Number of cycles decode is blocked
system.cpu.decode.BranchMispred                   222                       # Number of times decode detected a branch misprediction
system.cpu.decode.BranchResolved             16909056                       # Number of times decode resolved a branch
system.cpu.decode.DecodedInsts              119015635                       # Number of instructions handled by decode
system.cpu.decode.IdleCycles                 13479063                       # Number of cycles decode is idle
system.cpu.decode.RunCycles                  24552434                       # Number of cycles decode is running
system.cpu.decode.SquashCycles                  66365                       # Number of cycles decode is squashing
system.cpu.decode.SquashedInsts                227831                       # Number of squashed instructions handled by decode
system.cpu.decode.UnblockCycles              15806815                       # Number of cycles decode is unblocking
system.cpu.dtb.accesses                             0                       # DTB accesses
system.cpu.dtb.align_faults                         0                       # Number of TLB faults due to alignment restrictions
system.cpu.dtb.domain_faults                        0                       # Number of TLB faults due to domain restrictions
system.cpu.dtb.flush_entries                        0                       # Number of entries that have been flushed from TLB
system.cpu.dtb.flush_tlb                            0                       # Number of times complete TLB was flushed
system.cpu.dtb.flush_tlb_asid                       0                       # Number of times TLB was flushed by ASID
system.cpu.dtb.flush_tlb_mva                        0                       # Number of times TLB was flushed by MVA
system.cpu.dtb.flush_tlb_mva_asid                   0                       # Number of times TLB was flushed by MVA & ASID
system.cpu.dtb.hits                                 0                       # DTB hits
system.cpu.dtb.inst_accesses                        0                       # ITB inst accesses
system.cpu.dtb.inst_hits                            0                       # ITB inst hits
system.cpu.dtb.inst_misses                          0                       # ITB inst misses
system.cpu.dtb.misses                               0                       # DTB misses
system.cpu.dtb.perms_faults                         0                       # Number of TLB faults due to permissions restrictions
system.cpu.dtb.prefetch_faults                      0                       # Number of TLB faults due to prefetch
system.cpu.dtb.read_accesses                        0                       # DTB read accesses
system.cpu.dtb.read_hits                            0                       # DTB read hits
system.cpu.dtb.read_misses                          0                       # DTB read misses
system.cpu.dtb.stage2_mmu.stage2_tlb.accesses            0                       # DTB accesses
system.cpu.dtb.stage2_mmu.stage2_tlb.align_faults            0                       # Number of TLB faults due to alignment restrictions
system.cpu.dtb.stage2_mmu.stage2_tlb.domain_faults            0                       # Number of TLB faults due to domain restrictions
system.cpu.dtb.stage2_mmu.stage2_tlb.flush_entries            0                       # Number of entries that have been flushed from TLB
system.cpu.dtb.stage2_mmu.stage2_tlb.flush_tlb            0                       # Number of times complete TLB was flushed
system.cpu.dtb.stage2_mmu.stage2_tlb.flush_tlb_asid            0                       # Number of times TLB was flushed by ASID
system.cpu.dtb.stage2_mmu.stage2_tlb.flush_tlb_mva            0                       # Number of times TLB was flushed by MVA
system.cpu.dtb.stage2_mmu.stage2_tlb.flush_tlb_mva_asid            0                       # Number of times TLB was flushed by MVA & ASID
system.cpu.dtb.stage2_mmu.stage2_tlb.hits            0                       # DTB hits
system.cpu.dtb.stage2_mmu.stage2_tlb.inst_accesses            0                       # ITB inst accesses
system.cpu.dtb.stage2_mmu.stage2_tlb.inst_hits            0                       # ITB inst hits
system.cpu.dtb.stage2_mmu.stage2_tlb.inst_misses            0                       # ITB inst misses
system.cpu.dtb.stage2_mmu.stage2_tlb.misses            0                       # DTB misses
system.cpu.dtb.stage2_mmu.stage2_tlb.perms_faults            0                       # Number of TLB faults due to permissions restrictions
system.cpu.dtb.stage2_mmu.stage2_tlb.prefetch_faults            0                       # Number of TLB faults due to prefetch
system.cpu.dtb.stage2_mmu.stage2_tlb.read_accesses            0                       # DTB read accesses
system.cpu.dtb.stage2_mmu.stage2_tlb.read_hits            0                       # DTB read hits
system.cpu.dtb.stage2_mmu.stage2_tlb.read_misses            0                       # DTB read misses
system.cpu.dtb.stage2_mmu.stage2_tlb.walker.walkRequestOrigin_Requested::Data            0                       # Table walker requests started/completed, data/inst
system.cpu.dtb.stage2_mmu.stage2_tlb.walker.walkRequestOrigin_Requested::Inst            0                       # Table walker requests started/completed, data/inst
system.cpu.dtb.stage2_mmu.stage2_tlb.walker.walkRequestOrigin_Requested::total            0                       # Table walker requests started/completed, data/inst
system.cpu.dtb.stage2_mmu.stage2_tlb.walker.walkRequestOrigin_Completed::Data            0                       # Table walker requests started/completed, data/inst
system.cpu.dtb.stage2_mmu.stage2_tlb.walker.walkRequestOrigin_Completed::Inst            0                       # Table walker requests started/completed, data/inst
system.cpu.dtb.stage2_mmu.stage2_tlb.walker.walkRequestOrigin_Completed::total            0                       # Table walker requests started/completed, data/inst
system.cpu.dtb.stage2_mmu.stage2_tlb.walker.walkRequestOrigin::total            0                       # Table walker requests started/completed, data/inst
system.cpu.dtb.stage2_mmu.stage2_tlb.walker.walks            0                       # Table walker walks requested
system.cpu.dtb.stage2_mmu.stage2_tlb.write_accesses            0                       # DTB write accesses
system.cpu.dtb.stage2_mmu.stage2_tlb.write_hits            0                       # DTB write hits
system.cpu.dtb.stage2_mmu.stage2_tlb.write_misses            0                       # DTB write misses
system.cpu.dtb.walker.walkRequestOrigin_Requested::Data            0                       # Table walker requests started/completed, data/inst
system.cpu.dtb.walker.walkRequestOrigin_Requested::Inst            0                       # Table walker requests started/completed, data/inst
system.cpu.dtb.walker.walkRequestOrigin_Requested::total            0                       # Table walker requests started/completed, data/inst
system.cpu.dtb.walker.walkRequestOrigin_Completed::Data            0                       # Table walker requests started/completed, data/inst
system.cpu.dtb.walker.walkRequestOrigin_Completed::Inst            0                       # Table walker requests started/completed, data/inst
system.cpu.dtb.walker.walkRequestOrigin_Completed::total            0                       # Table walker requests started/completed, data/inst
system.cpu.dtb.walker.walkRequestOrigin::total            0                       # Table walker requests started/completed, data/inst
system.cpu.dtb.walker.walks                         0                       # Table walker walks requested
system.cpu.dtb.write_accesses                       0                       # DTB write accesses
system.cpu.dtb.write_hits                           0                       # DTB write hits
system.cpu.dtb.write_misses                         0                       # DTB write misses
system.cpu.fetch.Branches                    17282630                       # Number of branches that fetch encountered
system.cpu.fetch.CacheLines                  34638370                       # Number of cache lines fetched
system.cpu.fetch.Cycles                      82223447                       # Number of cycles fetch has run and was not squashing or blocked
system.cpu.fetch.IcacheSquashes                 26609                       # Number of outstanding Icache misses that were squashed
system.cpu.fetch.Insts                      103925953                       # Number of instructions fetch has processed
system.cpu.fetch.SquashCycles                  133156                       # Number of cycles fetch has spent squashing
system.cpu.fetch.branchRate                  0.147722                       # Number of branch fetches per cycle
system.cpu.fetch.icacheStallCycles           34662652                       # Number of cycles fetch is stalled on an Icache miss
system.cpu.fetch.predictedBranches           17214215                       # Number of branches that fetch has predicted taken
system.cpu.fetch.rate                        0.888301                       # Number of inst fetches per cycle
system.cpu.fetch.rateDist::samples          116952677                       # Number of instructions fetched each cycle (Total)
system.cpu.fetch.rateDist::mean              1.035607                       # Number of instructions fetched each cycle (Total)
system.cpu.fetch.rateDist::stdev             1.176697                       # Number of instructions fetched each cycle (Total)
system.cpu.fetch.rateDist::underflows               0      0.00%      0.00% # Number of instructions fetched each cycle (Total)
system.cpu.fetch.rateDist::0                 61568185     52.64%     52.64% # Number of instructions fetched each cycle (Total)
system.cpu.fetch.rateDist::1                  7043044      6.02%     58.67% # Number of instructions fetched each cycle (Total)
system.cpu.fetch.rateDist::2                 30950387     26.46%     85.13% # Number of instructions fetched each cycle (Total)
system.cpu.fetch.rateDist::3                 17391061     14.87%    100.00% # Number of instructions fetched each cycle (Total)
system.cpu.fetch.rateDist::overflows                0      0.00%    100.00% # Number of instructions fetched each cycle (Total)
system.cpu.fetch.rateDist::min_value                0                       # Number of instructions fetched each cycle (Total)
system.cpu.fetch.rateDist::max_value                3                       # Number of instructions fetched each cycle (Total)
system.cpu.fetch.rateDist::total            116952677                       # Number of instructions fetched each cycle (Total)
system.cpu.idleCycles                           41443                       # Total number of cycles that the CPU has spent unscheduled due to idling
system.cpu.iew.branchMispredicts                66372                       # Number of branch mispredicts detected at execute
system.cpu.iew.exec_branches                 16910542                       # Number of branches executed
system.cpu.iew.exec_nop                         65882                       # number of nop insts executed
system.cpu.iew.exec_rate                     1.365263                       # Inst execution rate
system.cpu.iew.exec_refs                     75084841                       # number of memory reference insts executed
system.cpu.iew.exec_stores                      67088                       # Number of stores executed
system.cpu.iew.exec_swp                             0                       # number of swp insts executed
system.cpu.iew.iewBlockCycles                     102                       # Number of cycles IEW is blocking
system.cpu.iew.iewDispLoadInsts              33730370                       # Number of dispatched load instructions
system.cpu.iew.iewDispNonSpecInsts                 87                       # Number of dispatched non-speculative instructions
system.cpu.iew.iewDispSquashedInsts                 0                       # Number of squashed instructions skipped by dispatch
system.cpu.iew.iewDispStoreInsts                67313                       # Number of dispatched store instructions
system.cpu.iew.iewDispatchedInsts           118572485                       # Number of instructions dispatched to IQ
system.cpu.iew.iewExecLoadInsts              75017753                       # Number of load instructions executed
system.cpu.iew.iewExecSquashedInsts             58207                       # Number of squashed instructions skipped in execute
system.cpu.iew.iewExecutedInsts             159727696                       # Number of executed instructions
system.cpu.iew.iewIQFullEvents                      0                       # Number of times the IQ has become full, causing a stall
system.cpu.iew.iewIdleCycles                        0                       # Number of cycles IEW is idle
system.cpu.iew.iewLSQFullEvents              14424231                       # Number of times the LSQ has become full, causing a stall
system.cpu.iew.iewSquashCycles                  66365                       # Number of cycles IEW is squashing
system.cpu.iew.iewUnblockCycles              14413390                       # Number of cycles IEW is unblocking
system.cpu.iew.lsq.thread0.blockedLoads             0                       # Number of blocked loads due to partial load-store forwarding
system.cpu.iew.lsq.thread0.cacheBlocked       4656726                       # Number of times an access to memory failed due to the cache being blocked
system.cpu.iew.lsq.thread0.forwLoads                5                       # Number of loads that had data forwarded from stores
system.cpu.iew.lsq.thread0.ignoredResponses            0                       # Number of memory responses ignored because the instruction is squashed
system.cpu.iew.lsq.thread0.invAddrLoads             0                       # Number of loads ignored due to an invalid address
system.cpu.iew.lsq.thread0.invAddrSwpfs             0                       # Number of software prefetches ignored due to an invalid address
system.cpu.iew.lsq.thread0.memOrderViolation            3                       # Number of memory ordering violations
system.cpu.iew.lsq.thread0.rescheduledLoads            6                       # Number of loads that were rescheduled
system.cpu.iew.lsq.thread0.squashedLoads       109161                       # Number of loads squashed
system.cpu.iew.lsq.thread0.squashedStores          272                       # Number of stores squashed
system.cpu.iew.memOrderViolationEvents              3                       # Number of memory order violations
system.cpu.iew.predictedNotTakenIncorrect          575                       # Number of branches that were predicted not taken incorrectly
system.cpu.iew.predictedTakenIncorrect          65797                       # Number of branches that were predicted taken incorrectly
system.cpu.iew.wb_consumers                 110383644                       # num instructions consuming a value
system.cpu.iew.wb_count                     118331178                       # cumulative count of insts written-back
system.cpu.iew.wb_fanout                     0.712007                       # average fanout of values written-back
system.cpu.iew.wb_producers                  78593958                       # num instructions producing a value
system.cpu.iew.wb_rate                       1.011428                       # insts written-back per cycle
system.cpu.iew.wb_sent                      118331287                       # cumulative count of insts sent to commit
system.cpu.int_regfile_reads                160070711                       # number of integer regfile reads
system.cpu.int_regfile_writes                50956865                       # number of integer regfile writes
system.cpu.ipc                               0.867221                       # IPC: Instructions Per Cycle
system.cpu.ipc_total                         0.867221                       # IPC: Total IPC of All Threads
system.cpu.iq.FU_type_0::No_OpClass                33      0.00%      0.00% # Type of FU issued
system.cpu.iq.FU_type_0::IntAlu              67895261     42.49%     42.49% # Type of FU issued
system.cpu.iq.FU_type_0::IntMult                    9      0.00%     42.49% # Type of FU issued
system.cpu.iq.FU_type_0::IntDiv                     3      0.00%     42.49% # Type of FU issued
system.cpu.iq.FU_type_0::FloatAdd                   0      0.00%     42.49% # Type of FU issued
system.cpu.iq.FU_type_0::FloatCmp                   0      0.00%     42.49% # Type of FU issued
system.cpu.iq.FU_type_0::FloatCvt                   2      0.00%     42.49% # Type of FU issued
system.cpu.iq.FU_type_0::FloatMult                  0      0.00%     42.49% # Type of FU issued
system.cpu.iq.FU_type_0::FloatMultAcc        16777216     10.50%     52.99% # Type of FU issued
system.cpu.iq.FU_type_0::FloatDiv                   2      0.00%     52.99% # Type of FU issued
system.cpu.iq.FU_type_0::FloatMisc                  2      0.00%     52.99% # Type of FU issued
system.cpu.iq.FU_type_0::FloatSqrt                  0      0.00%     52.99% # Type of FU issued
system.cpu.iq.FU_type_0::SimdAdd                   13      0.00%     52.99% # Type of FU issued
system.cpu.iq.FU_type_0::SimdAddAcc                 0      0.00%     52.99% # Type of FU issued
system.cpu.iq.FU_type_0::SimdAlu                   12      0.00%     52.99% # Type of FU issued
system.cpu.iq.FU_type_0::SimdCmp                   12      0.00%     52.99% # Type of FU issued
system.cpu.iq.FU_type_0::SimdCvt                    0      0.00%     52.99% # Type of FU issued
system.cpu.iq.FU_type_0::SimdMisc                  19      0.00%     52.99% # Type of FU issued
system.cpu.iq.FU_type_0::SimdMult                   0      0.00%     52.99% # Type of FU issued
system.cpu.iq.FU_type_0::SimdMultAcc                0      0.00%     52.99% # Type of FU issued
system.cpu.iq.FU_type_0::SimdShift                  0      0.00%     52.99% # Type of FU issued
system.cpu.iq.FU_type_0::SimdShiftAcc               0      0.00%     52.99% # Type of FU issued
system.cpu.iq.FU_type_0::SimdDiv                    0      0.00%     52.99% # Type of FU issued
system.cpu.iq.FU_type_0::SimdSqrt                   0      0.00%     52.99% # Type of FU issued
system.cpu.iq.FU_type_0::SimdFloatAdd               0      0.00%     52.99% # Type of FU issued
system.cpu.iq.FU_type_0::SimdFloatAlu               0      0.00%     52.99% # Type of FU issued
system.cpu.iq.FU_type_0::SimdFloatCmp               0      0.00%     52.99% # Type of FU issued
system.cpu.iq.FU_type_0::SimdFloatCvt               0      0.00%     52.99% # Type of FU issued
system.cpu.iq.FU_type_0::SimdFloatDiv               0      0.00%     52.99% # Type of FU issued
system.cpu.iq.FU_type_0::SimdFloatMisc              0      0.00%     52.99% # Type of FU issued
system.cpu.iq.FU_type_0::SimdFloatMult              0      0.00%     52.99% # Type of FU issued
system.cpu.iq.FU_type_0::SimdFloatMultAcc            0      0.00%     52.99% # Type of FU issued
system.cpu.iq.FU_type_0::SimdFloatSqrt              0      0.00%     52.99% # Type of FU issued
system.cpu.iq.FU_type_0::SimdReduceAdd              0      0.00%     52.99% # Type of FU issued
system.cpu.iq.FU_type_0::SimdReduceAlu              0      0.00%     52.99% # Type of FU issued
system.cpu.iq.FU_type_0::SimdReduceCmp              0      0.00%     52.99% # Type of FU issued
system.cpu.iq.FU_type_0::SimdFloatReduceAdd            0      0.00%     52.99% # Type of FU issued
system.cpu.iq.FU_type_0::SimdFloatReduceCmp            0      0.00%     52.99% # Type of FU issued
system.cpu.iq.FU_type_0::SimdAes                    0      0.00%     52.99% # Type of FU issued
system.cpu.iq.FU_type_0::SimdAesMix                 0      0.00%     52.99% # Type of FU issued
system.cpu.iq.FU_type_0::SimdSha1Hash               0      0.00%     52.99% # Type of FU issued
system.cpu.iq.FU_type_0::SimdSha1Hash2              0      0.00%     52.99% # Type of FU issued
system.cpu.iq.FU_type_0::SimdSha256Hash             0      0.00%     52.99% # Type of FU issued
system.cpu.iq.FU_type_0::SimdSha256Hash2            0      0.00%     52.99% # Type of FU issued
system.cpu.iq.FU_type_0::SimdShaSigma2              0      0.00%     52.99% # Type of FU issued
system.cpu.iq.FU_type_0::SimdShaSigma3              0      0.00%     52.99% # Type of FU issued
system.cpu.iq.FU_type_0::SimdPredAlu                0      0.00%     52.99% # Type of FU issued
system.cpu.iq.FU_type_0::MemRead             75046173     46.97%     99.96% # Type of FU issued
system.cpu.iq.FU_type_0::MemWrite               67146      0.04%    100.00% # Type of FU issued
system.cpu.iq.FU_type_0::FloatMemRead               0      0.00%    100.00% # Type of FU issued
system.cpu.iq.FU_type_0::FloatMemWrite              0      0.00%    100.00% # Type of FU issued
system.cpu.iq.FU_type_0::IprAccess                  0      0.00%    100.00% # Type of FU issued
system.cpu.iq.FU_type_0::InstPrefetch               0      0.00%    100.00% # Type of FU issued
system.cpu.iq.FU_type_0::total              159785903                       # Type of FU issued
system.cpu.iq.fp_alu_accesses                       0                       # Number of floating point alu accesses
system.cpu.iq.fp_inst_queue_reads                   0                       # Number of floating instruction queue reads
system.cpu.iq.fp_inst_queue_wakeup_accesses            0                       # Number of floating instruction queue wakeup accesses
system.cpu.iq.fp_inst_queue_writes                  0                       # Number of floating instruction queue writes
system.cpu.iq.fu_busy_cnt                    57877298                       # FU busy when requested
system.cpu.iq.fu_busy_rate                   0.362218                       # FU busy rate (busy events/executed inst)
system.cpu.iq.fu_full::No_OpClass                   0      0.00%      0.00% # attempts to use FU when none available
system.cpu.iq.fu_full::IntAlu                 2869896      4.96%      4.96% # attempts to use FU when none available
system.cpu.iq.fu_full::IntMult                      0      0.00%      4.96% # attempts to use FU when none available
system.cpu.iq.fu_full::IntDiv                       0      0.00%      4.96% # attempts to use FU when none available
system.cpu.iq.fu_full::FloatAdd                     0      0.00%      4.96% # attempts to use FU when none available
system.cpu.iq.fu_full::FloatCmp                     0      0.00%      4.96% # attempts to use FU when none available
system.cpu.iq.fu_full::FloatCvt                     0      0.00%      4.96% # attempts to use FU when none available
system.cpu.iq.fu_full::FloatMult                    0      0.00%      4.96% # attempts to use FU when none available
system.cpu.iq.fu_full::FloatMultAcc                 0      0.00%      4.96% # attempts to use FU when none available
system.cpu.iq.fu_full::FloatDiv                     0      0.00%      4.96% # attempts to use FU when none available
system.cpu.iq.fu_full::FloatMisc                    0      0.00%      4.96% # attempts to use FU when none available
system.cpu.iq.fu_full::FloatSqrt                    0      0.00%      4.96% # attempts to use FU when none available
system.cpu.iq.fu_full::SimdAdd                      0      0.00%      4.96% # attempts to use FU when none available
system.cpu.iq.fu_full::SimdAddAcc                   0      0.00%      4.96% # attempts to use FU when none available
system.cpu.iq.fu_full::SimdAlu                      1      0.00%      4.96% # attempts to use FU when none available
system.cpu.iq.fu_full::SimdCmp                      3      0.00%      4.96% # attempts to use FU when none available
system.cpu.iq.fu_full::SimdCvt                      0      0.00%      4.96% # attempts to use FU when none available
system.cpu.iq.fu_full::SimdMisc                     0      0.00%      4.96% # attempts to use FU when none available
system.cpu.iq.fu_full::SimdMult                     0      0.00%      4.96% # attempts to use FU when none available
system.cpu.iq.fu_full::SimdMultAcc                  0      0.00%      4.96% # attempts to use FU when none available
system.cpu.iq.fu_full::SimdShift                    0      0.00%      4.96% # attempts to use FU when none available
system.cpu.iq.fu_full::SimdShiftAcc                 0      0.00%      4.96% # attempts to use FU when none available
system.cpu.iq.fu_full::SimdDiv                      0      0.00%      4.96% # attempts to use FU when none available
system.cpu.iq.fu_full::SimdSqrt                     0      0.00%      4.96% # attempts to use FU when none available
system.cpu.iq.fu_full::SimdFloatAdd                 0      0.00%      4.96% # attempts to use FU when none available
system.cpu.iq.fu_full::SimdFloatAlu                 0      0.00%      4.96% # attempts to use FU when none available
system.cpu.iq.fu_full::SimdFloatCmp                 0      0.00%      4.96% # attempts to use FU when none available
system.cpu.iq.fu_full::SimdFloatCvt                 0      0.00%      4.96% # attempts to use FU when none available
system.cpu.iq.fu_full::SimdFloatDiv                 0      0.00%      4.96% # attempts to use FU when none available
system.cpu.iq.fu_full::SimdFloatMisc                0      0.00%      4.96% # attempts to use FU when none available
system.cpu.iq.fu_full::SimdFloatMult                0      0.00%      4.96% # attempts to use FU when none available
system.cpu.iq.fu_full::SimdFloatMultAcc             0      0.00%      4.96% # attempts to use FU when none available
system.cpu.iq.fu_full::SimdFloatSqrt                0      0.00%      4.96% # attempts to use FU when none available
system.cpu.iq.fu_full::SimdReduceAdd                0      0.00%      4.96% # attempts to use FU when none available
system.cpu.iq.fu_full::SimdReduceAlu                0      0.00%      4.96% # attempts to use FU when none available
system.cpu.iq.fu_full::SimdReduceCmp                0      0.00%      4.96% # attempts to use FU when none available
system.cpu.iq.fu_full::SimdFloatReduceAdd            0      0.00%      4.96% # attempts to use FU when none available
system.cpu.iq.fu_full::SimdFloatReduceCmp            0      0.00%      4.96% # attempts to use FU when none available
system.cpu.iq.fu_full::SimdAes                      0      0.00%      4.96% # attempts to use FU when none available
system.cpu.iq.fu_full::SimdAesMix                   0      0.00%      4.96% # attempts to use FU when none available
system.cpu.iq.fu_full::SimdSha1Hash                 0      0.00%      4.96% # attempts to use FU when none available
system.cpu.iq.fu_full::SimdSha1Hash2                0      0.00%      4.96% # attempts to use FU when none available
system.cpu.iq.fu_full::SimdSha256Hash               0      0.00%      4.96% # attempts to use FU when none available
system.cpu.iq.fu_full::SimdSha256Hash2              0      0.00%      4.96% # attempts to use FU when none available
system.cpu.iq.fu_full::SimdShaSigma2                0      0.00%      4.96% # attempts to use FU when none available
system.cpu.iq.fu_full::SimdShaSigma3                0      0.00%      4.96% # attempts to use FU when none available
system.cpu.iq.fu_full::SimdPredAlu                  0      0.00%      4.96% # attempts to use FU when none available
system.cpu.iq.fu_full::MemRead               55006681     95.04%    100.00% # attempts to use FU when none available
system.cpu.iq.fu_full::MemWrite                   717      0.00%    100.00% # attempts to use FU when none available
system.cpu.iq.fu_full::FloatMemRead                 0      0.00%    100.00% # attempts to use FU when none available
system.cpu.iq.fu_full::FloatMemWrite                0      0.00%    100.00% # attempts to use FU when none available
system.cpu.iq.fu_full::IprAccess                    0      0.00%    100.00% # attempts to use FU when none available
system.cpu.iq.fu_full::InstPrefetch                 0      0.00%    100.00% # attempts to use FU when none available
system.cpu.iq.int_alu_accesses               70769364                       # Number of integer alu accesses
system.cpu.iq.int_inst_queue_reads          255620777                       # Number of integer instruction queue reads
system.cpu.iq.int_inst_queue_wakeup_accesses     67868302                       # Number of integer instruction queue wakeup accesses
system.cpu.iq.int_inst_queue_writes          68055792                       # Number of integer instruction queue writes
system.cpu.iq.iqInstsAdded                  118506516                       # Number of instructions added to the IQ (excludes non-spec)
system.cpu.iq.iqInstsIssued                 159785903                       # Number of instructions issued
system.cpu.iq.iqNonSpecInstsAdded                  87                       # Number of non-speculative instructions added to the IQ
system.cpu.iq.iqSquashedInstsExamined          268136                       # Number of squashed instructions iterated over during squash; mainly for profiling
system.cpu.iq.iqSquashedInstsIssued             80380                       # Number of squashed instructions issued
system.cpu.iq.iqSquashedNonSpecRemoved             10                       # Number of squashed non-spec instructions that were removed
system.cpu.iq.iqSquashedOperandsExamined       493294                       # Number of squashed operands that are examined and possibly removed from graph
system.cpu.iq.issued_per_cycle::samples     116952677                       # Number of insts issued each cycle
system.cpu.iq.issued_per_cycle::mean         1.366244                       # Number of insts issued each cycle
system.cpu.iq.issued_per_cycle::stdev        1.055033                       # Number of insts issued each cycle
system.cpu.iq.issued_per_cycle::underflows            0      0.00%      0.00% # Number of insts issued each cycle
system.cpu.iq.issued_per_cycle::0            31267697     26.74%     26.74% # Number of insts issued each cycle
system.cpu.iq.issued_per_cycle::1            31557005     26.98%     53.72% # Number of insts issued each cycle
system.cpu.iq.issued_per_cycle::2            34431127     29.44%     83.16% # Number of insts issued each cycle
system.cpu.iq.issued_per_cycle::3            19420748     16.61%     99.76% # Number of insts issued each cycle
system.cpu.iq.issued_per_cycle::4              276100      0.24%    100.00% # Number of insts issued each cycle
system.cpu.iq.issued_per_cycle::5                   0      0.00%    100.00% # Number of insts issued each cycle
system.cpu.iq.issued_per_cycle::6                   0      0.00%    100.00% # Number of insts issued each cycle
system.cpu.iq.issued_per_cycle::7                   0      0.00%    100.00% # Number of insts issued each cycle
system.cpu.iq.issued_per_cycle::8                   0      0.00%    100.00% # Number of insts issued each cycle
system.cpu.iq.issued_per_cycle::overflows            0      0.00%    100.00% # Number of insts issued each cycle
system.cpu.iq.issued_per_cycle::min_value            0                       # Number of insts issued each cycle
system.cpu.iq.issued_per_cycle::max_value            4                       # Number of insts issued each cycle
system.cpu.iq.issued_per_cycle::total       116952677                       # Number of insts issued each cycle
system.cpu.iq.rate                           1.365760                       # Inst issue rate
system.cpu.iq.vec_alu_accesses              146893804                       # Number of vector alu accesses
system.cpu.iq.vec_inst_queue_reads          238861384                       # Number of vector instruction queue reads
system.cpu.iq.vec_inst_queue_wakeup_accesses     50462876                       # Number of vector instruction queue wakeup accesses
system.cpu.iq.vec_inst_queue_writes          50718950                       # Number of vector instruction queue writes
system.cpu.itb.accesses                             0                       # DTB accesses
system.cpu.itb.align_faults                         0                       # Number of TLB faults due to alignment restrictions
system.cpu.itb.domain_faults                        0                       # Number of TLB faults due to domain restrictions
system.cpu.itb.flush_entries                        0                       # Number of entries that have been flushed from TLB
system.cpu.itb.flush_tlb                            0                       # Number of times complete TLB was flushed
system.cpu.itb.flush_tlb_asid                       0                       # Number of times TLB was flushed by ASID
system.cpu.itb.flush_tlb_mva                        0                       # Number of times TLB was flushed by MVA
system.cpu.itb.flush_tlb_mva_asid                   0                       # Number of times TLB was flushed by MVA & ASID
system.cpu.itb.hits                                 0                       # DTB hits
system.cpu.itb.inst_accesses                        0                       # ITB inst accesses
system.cpu.itb.inst_hits                            0                       # ITB inst hits
system.cpu.itb.inst_misses                          0                       # ITB inst misses
system.cpu.itb.misses                               0                       # DTB misses
system.cpu.itb.perms_faults                         0                       # Number of TLB faults due to permissions restrictions
system.cpu.itb.prefetch_faults                      0                       # Number of TLB faults due to prefetch
system.cpu.itb.read_accesses                        0                       # DTB read accesses
system.cpu.itb.read_hits                            0                       # DTB read hits
system.cpu.itb.read_misses                          0                       # DTB read misses
system.cpu.itb.stage2_mmu.stage2_tlb.accesses            0                       # DTB accesses
system.cpu.itb.stage2_mmu.stage2_tlb.align_faults            0                       # Number of TLB faults due to alignment restrictions
system.cpu.itb.stage2_mmu.stage2_tlb.domain_faults            0                       # Number of TLB faults due to domain restrictions
system.cpu.itb.stage2_mmu.stage2_tlb.flush_entries            0                       # Number of entries that have been flushed from TLB
system.cpu.itb.stage2_mmu.stage2_tlb.flush_tlb            0                       # Number of times complete TLB was flushed
system.cpu.itb.stage2_mmu.stage2_tlb.flush_tlb_asid            0                       # Number of times TLB was flushed by ASID
system.cpu.itb.stage2_mmu.stage2_tlb.flush_tlb_mva            0                       # Number of times TLB was flushed by MVA
system.cpu.itb.stage2_mmu.stage2_tlb.flush_tlb_mva_asid            0                       # Number of times TLB was flushed by MVA & ASID
system.cpu.itb.stage2_mmu.stage2_tlb.hits            0                       # DTB hits
system.cpu.itb.stage2_mmu.stage2_tlb.inst_accesses            0                       # ITB inst accesses
system.cpu.itb.stage2_mmu.stage2_tlb.inst_hits            0                       # ITB inst hits
system.cpu.itb.stage2_mmu.stage2_tlb.inst_misses            0                       # ITB inst misses
system.cpu.itb.stage2_mmu.stage2_tlb.misses            0                       # DTB misses
system.cpu.itb.stage2_mmu.stage2_tlb.perms_faults            0                       # Number of TLB faults due to permissions restrictions
system.cpu.itb.stage2_mmu.stage2_tlb.prefetch_faults            0                       # Number of TLB faults due to prefetch
system.cpu.itb.stage2_mmu.stage2_tlb.read_accesses            0                       # DTB read accesses
system.cpu.itb.stage2_mmu.stage2_tlb.read_hits            0                       # DTB read hits
system.cpu.itb.stage2_mmu.stage2_tlb.read_misses            0                       # DTB read misses
system.cpu.itb.stage2_mmu.stage2_tlb.walker.walkRequestOrigin_Requested::Data            0                       # Table walker requests started/completed, data/inst
system.cpu.itb.stage2_mmu.stage2_tlb.walker.walkRequestOrigin_Requested::Inst            0                       # Table walker requests started/completed, data/inst
system.cpu.itb.stage2_mmu.stage2_tlb.walker.walkRequestOrigin_Requested::total            0                       # Table walker requests started/completed, data/inst
system.cpu.itb.stage2_mmu.stage2_tlb.walker.walkRequestOrigin_Completed::Data            0                       # Table walker requests started/completed, data/inst
system.cpu.itb.stage2_mmu.stage2_tlb.walker.walkRequestOrigin_Completed::Inst            0                       # Table walker requests started/completed, data/inst
system.cpu.itb.stage2_mmu.stage2_tlb.walker.walkRequestOrigin_Completed::total            0                       # Table walker requests started/completed, data/inst
system.cpu.itb.stage2_mmu.stage2_tlb.walker.walkRequestOrigin::total            0                       # Table walker requests started/completed, data/inst
system.cpu.itb.stage2_mmu.stage2_tlb.walker.walks            0                       # Table walker walks requested
system.cpu.itb.stage2_mmu.stage2_tlb.write_accesses            0                       # DTB write accesses
system.cpu.itb.stage2_mmu.stage2_tlb.write_hits            0                       # DTB write hits
system.cpu.itb.stage2_mmu.stage2_tlb.write_misses            0                       # DTB write misses
system.cpu.itb.walker.walkRequestOrigin_Requested::Data            0                       # Table walker requests started/completed, data/inst
system.cpu.itb.walker.walkRequestOrigin_Requested::Inst            0                       # Table walker requests started/completed, data/inst
system.cpu.itb.walker.walkRequestOrigin_Requested::total            0                       # Table walker requests started/completed, data/inst
system.cpu.itb.walker.walkRequestOrigin_Completed::Data            0                       # Table walker requests started/completed, data/inst
system.cpu.itb.walker.walkRequestOrigin_Completed::Inst            0                       # Table walker requests started/completed, data/inst
system.cpu.itb.walker.walkRequestOrigin_Completed::total            0                       # Table walker requests started/completed, data/inst
system.cpu.itb.walker.walkRequestOrigin::total            0                       # Table walker requests started/completed, data/inst
system.cpu.itb.walker.walks                         0                       # Table walker walks requested
system.cpu.itb.write_accesses                       0                       # DTB write accesses
system.cpu.itb.write_hits                           0                       # DTB write hits
system.cpu.itb.write_misses                         0                       # DTB write misses
system.cpu.memDep0.conflictingLoads                 0                       # Number of conflicting loads.
system.cpu.memDep0.conflictingStores                2                       # Number of conflicting stores.
system.cpu.memDep0.insertedLoads             33730370                       # Number of loads inserted to the mem dependence unit.
system.cpu.memDep0.insertedStores               67313                       # Number of stores inserted to the mem dependence unit.
system.cpu.misc_regfile_reads               478441347                       # number of misc regfile reads
system.cpu.misc_regfile_writes               16777287                       # number of misc regfile writes
system.cpu.numCycles                        116994120                       # number of cpu cycles simulated
system.cpu.numWorkItemsCompleted                    0                       # number of work items this cpu completed
system.cpu.numWorkItemsStarted                      0                       # number of work items this cpu started
system.cpu.rename.BlockCycles                17006488                       # Number of cycles rename is blocking
system.cpu.rename.CommittedMaps             168766901                       # Number of HB maps that are committed
system.cpu.rename.FullRegisterEvents               39                       # Number of times there has been no free registers
system.cpu.rename.IdleCycles                 21590936                       # Number of cycles rename is idle
system.cpu.rename.LQFullEvents               38147379                       # Number of times rename has blocked due to LQ full
system.cpu.rename.ROBFullEvents              33084767                       # Number of times rename has blocked due to ROB full
system.cpu.rename.RenameLookups             338263697                       # Number of register rename lookups that rename has made
system.cpu.rename.RenamedInsts              118653052                       # Number of instructions processed by rename
system.cpu.rename.RenamedOperands           169209325                       # Number of destination operands rename has renamed
system.cpu.rename.RunCycles                  31097248                       # Number of cycles rename is running
system.cpu.rename.SQFullEvents                    956                       # Number of times rename has blocked due to SQ full
system.cpu.rename.SquashCycles                  66365                       # Number of cycles rename is squashing
system.cpu.rename.SquashedInsts                130199                       # Number of squashed instructions processed by rename
system.cpu.rename.UnblockCycles              47189457                       # Number of cycles rename is unblocking
system.cpu.rename.UndoneMaps                   442424                       # Number of HB maps that are undone due to squashing
system.cpu.rename.int_rename_lookups        118893782                       # Number of integer rename lookups
system.cpu.rename.serializeStallCycles           2183                       # count of cycles rename stalled for serializing inst
system.cpu.rename.serializingInsts                 65                       # count of serializing insts renamed
system.cpu.rename.skidInsts                  33152925                       # count of insts added to the skid buffer
system.cpu.rename.tempSerializingInsts             24                       # count of temporary serializing insts renamed
system.cpu.rename.vec_rename_lookups         50508254                       # Number of vector rename lookups
system.cpu.rob.rob_reads                    235372894                       # The number of ROB reads
system.cpu.rob.rob_writes                   237181046                       # The number of ROB writes
system.cpu.timesIdled                             363                       # Number of times that the entire CPU went into an idle state and unscheduled itself
system.cpu.vec_regfile_reads                 50397359                       # number of vector regfile reads
system.cpu.vec_regfile_writes                50397247                       # number of vector regfile writes
system.cpu.workload.numSyscalls                    16                       # Number of system calls
system.l2.prefetcher.num_hwpf_issued             2190                       # number of hwpf issued
system.l2.prefetcher.pfBufferHit                    0                       # number of redundant prefetches already in prefetch queue
system.l2.prefetcher.pfIdentified                2191                       # number of prefetch candidates identified
system.l2.prefetcher.pfInCache                      0                       # number of redundant prefetches already in cache/mshr dropped
system.l2.prefetcher.pfRemovedFull                  0                       # number of prefetches dropped due to prefetch queue size
system.l2.prefetcher.pfSpanPage                  1645                       # number of prefetches that crossed the page
system.membus.snoop_filter.hit_multi_requests            0                       # Number of requests hitting in the snoop filter with multiple (>1) holders of the requested data.
system.membus.snoop_filter.hit_multi_snoops            0                       # Number of snoops hitting in the snoop filter with multiple (>1) holders of the requested data.
system.membus.snoop_filter.hit_single_requests            0                       # Number of requests hitting in the snoop filter with a single holder of the requested data.
system.membus.snoop_filter.hit_single_snoops            0                       # Number of snoops hitting in the snoop filter with a single holder of the requested data.
system.membus.snoop_filter.tot_requests         13010                       # Total number of requests made to the snoop filter.
system.membus.snoop_filter.tot_snoops               0                       # Total number of snoops made to the snoop filter.
system.tol2bus.snoop_filter.hit_multi_requests            4                       # Number of requests hitting in the snoop filter with multiple (>1) holders of the requested data.
system.tol2bus.snoop_filter.hit_multi_snoops            0                       # Number of snoops hitting in the snoop filter with multiple (>1) holders of the requested data.
system.tol2bus.snoop_filter.hit_single_requests     16549087                       # Number of requests hitting in the snoop filter with a single holder of the requested data.
system.tol2bus.snoop_filter.hit_single_snoops            3                       # Number of snoops hitting in the snoop filter with a single holder of the requested data.
system.tol2bus.snoop_filter.tot_requests     33100557                       # Total number of requests made to the snoop filter.
system.tol2bus.snoop_filter.tot_snoops              3                       # Total number of snoops made to the snoop filter.
system.membus.pwrStateResidencyTicks::UNDEFINED  58497059500                       # Cumulative time (in ticks) in various power states
system.membus.trans_dist::ReadResp              12942                       # Transaction distribution
system.membus.trans_dist::ReadExReq                63                       # Transaction distribution
system.membus.trans_dist::ReadExResp               63                       # Transaction distribution
system.membus.trans_dist::ReadSharedReq         12942                       # Transaction distribution
system.membus.trans_dist::InvalidateReq             5                       # Transaction distribution
system.membus.pkt_count_system.l2.mem_side::system.mem_ctrls.port        26015                       # Packet count per connected master and slave (bytes)
system.membus.pkt_count::total                  26015                       # Packet count per connected master and slave (bytes)
system.membus.pkt_size_system.l2.mem_side::system.mem_ctrls.port       832320                       # Cumulative packet size per connected master and slave (bytes)
system.membus.pkt_size::total                  832320                       # Cumulative packet size per connected master and slave (bytes)
system.membus.snoops                                0                       # Total snoops (count)
system.membus.snoopTraffic                          0                       # Total snoop traffic (bytes)
system.membus.snoop_fanout::samples             13010                       # Request fanout histogram
system.membus.snoop_fanout::mean                    0                       # Request fanout histogram
system.membus.snoop_fanout::stdev                   0                       # Request fanout histogram
system.membus.snoop_fanout::underflows              0      0.00%      0.00% # Request fanout histogram
system.membus.snoop_fanout::0                   13010    100.00%    100.00% # Request fanout histogram
system.membus.snoop_fanout::1                       0      0.00%    100.00% # Request fanout histogram
system.membus.snoop_fanout::overflows               0      0.00%    100.00% # Request fanout histogram
system.membus.snoop_fanout::min_value               0                       # Request fanout histogram
system.membus.snoop_fanout::max_value               0                       # Request fanout histogram
system.membus.snoop_fanout::total               13010                       # Request fanout histogram
system.membus.respLayer1.occupancy           68384007                       # Layer occupancy (ticks)
system.membus.respLayer1.utilization              0.1                       # Layer utilization (%)
system.membus.reqLayer0.occupancy            15384091                       # Layer occupancy (ticks)
system.membus.reqLayer0.utilization               0.0                       # Layer utilization (%)
system.tol2bus.pwrStateResidencyTicks::UNDEFINED  58497059500                       # Cumulative time (in ticks) in various power states
system.tol2bus.trans_dist::ReadResp          16545547                       # Transaction distribution
system.tol2bus.trans_dist::WritebackDirty        70133                       # Transaction distribution
system.tol2bus.trans_dist::WritebackClean           92                       # Transaction distribution
system.tol2bus.trans_dist::CleanEvict        16478865                       # Transaction distribution
system.tol2bus.trans_dist::HardPFReq             3245                       # Transaction distribution
system.tol2bus.trans_dist::ReadExReq             5917                       # Transaction distribution
system.tol2bus.trans_dist::ReadExResp            5917                       # Transaction distribution
system.tol2bus.trans_dist::ReadCleanReq           427                       # Transaction distribution
system.tol2bus.trans_dist::ReadSharedReq     16545121                       # Transaction distribution
system.tol2bus.trans_dist::InvalidateReq            5                       # Transaction distribution
system.tol2bus.trans_dist::InvalidateResp            5                       # Transaction distribution
system.tol2bus.pkt_count_system.cpu.icache.mem_side::system.l2.cpu_side          945                       # Packet count per connected master and slave (bytes)
system.tol2bus.pkt_count_system.cpu.dcache.mem_side::system.l2.cpu_side     49651081                       # Packet count per connected master and slave (bytes)
system.tol2bus.pkt_count::total              49652026                       # Packet count per connected master and slave (bytes)
system.tol2bus.pkt_size_system.cpu.icache.mem_side::system.l2.cpu_side        33152                       # Cumulative packet size per connected master and slave (bytes)
system.tol2bus.pkt_size_system.cpu.dcache.mem_side::system.l2.cpu_side   1063754944                       # Cumulative packet size per connected master and slave (bytes)
system.tol2bus.pkt_size::total             1063788096                       # Cumulative packet size per connected master and slave (bytes)
system.tol2bus.snoops                            3248                       # Total snoops (count)
system.tol2bus.snoopTraffic                         0                       # Total snoop traffic (bytes)
system.tol2bus.snoop_fanout::samples         16554718                       # Request fanout histogram
system.tol2bus.snoop_fanout::mean            0.000000                       # Request fanout histogram
system.tol2bus.snoop_fanout::stdev           0.000650                       # Request fanout histogram
system.tol2bus.snoop_fanout::underflows             0      0.00%      0.00% # Request fanout histogram
system.tol2bus.snoop_fanout::0               16554711    100.00%    100.00% # Request fanout histogram
system.tol2bus.snoop_fanout::1                      7      0.00%    100.00% # Request fanout histogram
system.tol2bus.snoop_fanout::2                      0      0.00%    100.00% # Request fanout histogram
system.tol2bus.snoop_fanout::overflows              0      0.00%    100.00% # Request fanout histogram
system.tol2bus.snoop_fanout::min_value              0                       # Request fanout histogram
system.tol2bus.snoop_fanout::max_value              1                       # Request fanout histogram
system.tol2bus.snoop_fanout::total           16554718                       # Request fanout histogram
system.tol2bus.reqLayer0.occupancy        16662640881                       # Layer occupancy (ticks)
system.tol2bus.reqLayer0.utilization             28.5                       # Layer utilization (%)
system.tol2bus.respLayer1.occupancy       24826559500                       # Layer occupancy (ticks)
system.tol2bus.respLayer1.utilization            42.4                       # Layer utilization (%)
system.tol2bus.respLayer0.occupancy            639000                       # Layer occupancy (ticks)
system.tol2bus.respLayer0.utilization             0.0                       # Layer utilization (%)
system.voltage_domain.voltage                       1                       # Voltage in Volts
system.clk_domain.clock                          1000                       # Clock period in ticks
system.l2.pwrStateResidencyTicks::UNDEFINED  58497059500                       # Cumulative time (in ticks) in various power states
system.l2.demand_hits::.cpu.inst                   13                       # number of demand (read+write) hits
system.l2.demand_hits::.cpu.data             16454170                       # number of demand (read+write) hits
system.l2.demand_hits::.cpu.dcache.prefetcher        85976                       # number of demand (read+write) hits
system.l2.demand_hits::total                 16540159                       # number of demand (read+write) hits
system.l2.overall_hits::.cpu.inst                  13                       # number of overall hits
system.l2.overall_hits::.cpu.data            16454170                       # number of overall hits
system.l2.overall_hits::.cpu.dcache.prefetcher        85976                       # number of overall hits
system.l2.overall_hits::total                16540159                       # number of overall hits
system.l2.demand_misses::.cpu.inst                414                       # number of demand (read+write) misses
system.l2.demand_misses::.cpu.data               7474                       # number of demand (read+write) misses
system.l2.demand_misses::.cpu.dcache.prefetcher         3418                       # number of demand (read+write) misses
system.l2.demand_misses::total                  11306                       # number of demand (read+write) misses
system.l2.overall_misses::.cpu.inst               414                       # number of overall misses
system.l2.overall_misses::.cpu.data              7474                       # number of overall misses
system.l2.overall_misses::.cpu.dcache.prefetcher         3418                       # number of overall misses
system.l2.overall_misses::total                 11306                       # number of overall misses
system.l2.demand_miss_latency::.cpu.inst     32966000                       # number of demand (read+write) miss cycles
system.l2.demand_miss_latency::.cpu.data    586450500                       # number of demand (read+write) miss cycles
system.l2.demand_miss_latency::.cpu.dcache.prefetcher    273709504                       # number of demand (read+write) miss cycles
system.l2.demand_miss_latency::total        893126004                       # number of demand (read+write) miss cycles
system.l2.overall_miss_latency::.cpu.inst     32966000                       # number of overall miss cycles
system.l2.overall_miss_latency::.cpu.data    586450500                       # number of overall miss cycles
system.l2.overall_miss_latency::.cpu.dcache.prefetcher    273709504                       # number of overall miss cycles
system.l2.overall_miss_latency::total       893126004                       # number of overall miss cycles
system.l2.demand_accesses::.cpu.inst              427                       # number of demand (read+write) accesses
system.l2.demand_accesses::.cpu.data         16461644                       # number of demand (read+write) accesses
system.l2.demand_accesses::.cpu.dcache.prefetcher        89394                       # number of demand (read+write) accesses
system.l2.demand_accesses::total             16551465                       # number of demand (read+write) accesses
system.l2.overall_accesses::.cpu.inst             427                       # number of overall (read+write) accesses
system.l2.overall_accesses::.cpu.data        16461644                       # number of overall (read+write) accesses
system.l2.overall_accesses::.cpu.dcache.prefetcher        89394                       # number of overall (read+write) accesses
system.l2.overall_accesses::total            16551465                       # number of overall (read+write) accesses
system.l2.demand_miss_rate::.cpu.inst        0.969555                       # miss rate for demand accesses
system.l2.demand_miss_rate::.cpu.data        0.000454                       # miss rate for demand accesses
system.l2.demand_miss_rate::.cpu.dcache.prefetcher     0.038235                       # miss rate for demand accesses
system.l2.demand_miss_rate::total            0.000683                       # miss rate for demand accesses
system.l2.overall_miss_rate::.cpu.inst       0.969555                       # miss rate for overall accesses
system.l2.overall_miss_rate::.cpu.data       0.000454                       # miss rate for overall accesses
system.l2.overall_miss_rate::.cpu.dcache.prefetcher     0.038235                       # miss rate for overall accesses
system.l2.overall_miss_rate::total           0.000683                       # miss rate for overall accesses
system.l2.demand_avg_miss_latency::.cpu.inst 79628.019324                       # average overall miss latency
system.l2.demand_avg_miss_latency::.cpu.data 78465.413433                       # average overall miss latency
system.l2.demand_avg_miss_latency::.cpu.dcache.prefetcher 80078.848449                       # average overall miss latency
system.l2.demand_avg_miss_latency::total 78995.754820                       # average overall miss latency
system.l2.overall_avg_miss_latency::.cpu.inst 79628.019324                       # average overall miss latency
system.l2.overall_avg_miss_latency::.cpu.data 78465.413433                       # average overall miss latency
system.l2.overall_avg_miss_latency::.cpu.dcache.prefetcher 80078.848449                       # average overall miss latency
system.l2.overall_avg_miss_latency::total 78995.754820                       # average overall miss latency
system.l2.blocked_cycles::no_mshrs                  0                       # number of cycles access was blocked
system.l2.blocked_cycles::no_targets                0                       # number of cycles access was blocked
system.l2.blocked::no_mshrs                         0                       # number of cycles access was blocked
system.l2.blocked::no_targets                       0                       # number of cycles access was blocked
system.l2.avg_blocked_cycles::no_mshrs            nan                       # average number of cycles each access was blocked
system.l2.avg_blocked_cycles::no_targets          nan                       # average number of cycles each access was blocked
system.l2.demand_mshr_hits::.cpu.data             212                       # number of demand (read+write) MSHR hits
system.l2.demand_mshr_hits::.cpu.dcache.prefetcher           11                       # number of demand (read+write) MSHR hits
system.l2.demand_mshr_hits::total                 223                       # number of demand (read+write) MSHR hits
system.l2.overall_mshr_hits::.cpu.data            212                       # number of overall MSHR hits
system.l2.overall_mshr_hits::.cpu.dcache.prefetcher           11                       # number of overall MSHR hits
system.l2.overall_mshr_hits::total                223                       # number of overall MSHR hits
system.l2.demand_mshr_misses::.cpu.inst           414                       # number of demand (read+write) MSHR misses
system.l2.demand_mshr_misses::.cpu.data          7262                       # number of demand (read+write) MSHR misses
system.l2.demand_mshr_misses::.cpu.dcache.prefetcher         3407                       # number of demand (read+write) MSHR misses
system.l2.demand_mshr_misses::total             11083                       # number of demand (read+write) MSHR misses
system.l2.overall_mshr_misses::.cpu.inst          414                       # number of overall MSHR misses
system.l2.overall_mshr_misses::.cpu.data         7262                       # number of overall MSHR misses
system.l2.overall_mshr_misses::.cpu.dcache.prefetcher         3407                       # number of overall MSHR misses
system.l2.overall_mshr_misses::.l2.prefetcher         1923                       # number of overall MSHR misses
system.l2.overall_mshr_misses::total            13006                       # number of overall MSHR misses
system.l2.demand_mshr_miss_latency::.cpu.inst     28836000                       # number of demand (read+write) MSHR miss cycles
system.l2.demand_mshr_miss_latency::.cpu.data    502803500                       # number of demand (read+write) MSHR miss cycles
system.l2.demand_mshr_miss_latency::.cpu.dcache.prefetcher    238815570                       # number of demand (read+write) MSHR miss cycles
system.l2.demand_mshr_miss_latency::total    770455070                       # number of demand (read+write) MSHR miss cycles
system.l2.overall_mshr_miss_latency::.cpu.inst     28836000                       # number of overall MSHR miss cycles
system.l2.overall_mshr_miss_latency::.cpu.data    502803500                       # number of overall MSHR miss cycles
system.l2.overall_mshr_miss_latency::.cpu.dcache.prefetcher    238815570                       # number of overall MSHR miss cycles
system.l2.overall_mshr_miss_latency::.l2.prefetcher    130273174                       # number of overall MSHR miss cycles
system.l2.overall_mshr_miss_latency::total    900728244                       # number of overall MSHR miss cycles
system.l2.demand_mshr_miss_rate::.cpu.inst     0.969555                       # mshr miss rate for demand accesses
system.l2.demand_mshr_miss_rate::.cpu.data     0.000441                       # mshr miss rate for demand accesses
system.l2.demand_mshr_miss_rate::.cpu.dcache.prefetcher     0.038112                       # mshr miss rate for demand accesses
system.l2.demand_mshr_miss_rate::total       0.000670                       # mshr miss rate for demand accesses
system.l2.overall_mshr_miss_rate::.cpu.inst     0.969555                       # mshr miss rate for overall accesses
system.l2.overall_mshr_miss_rate::.cpu.data     0.000441                       # mshr miss rate for overall accesses
system.l2.overall_mshr_miss_rate::.cpu.dcache.prefetcher     0.038112                       # mshr miss rate for overall accesses
system.l2.overall_mshr_miss_rate::.l2.prefetcher          inf                       # mshr miss rate for overall accesses
system.l2.overall_mshr_miss_rate::total      0.000786                       # mshr miss rate for overall accesses
system.l2.demand_avg_mshr_miss_latency::.cpu.inst 69652.173913                       # average overall mshr miss latency
system.l2.demand_avg_mshr_miss_latency::.cpu.data 69237.606720                       # average overall mshr miss latency
system.l2.demand_avg_mshr_miss_latency::.cpu.dcache.prefetcher 70095.559143                       # average overall mshr miss latency
system.l2.demand_avg_mshr_miss_latency::total 69516.833890                       # average overall mshr miss latency
system.l2.overall_avg_mshr_miss_latency::.cpu.inst 69652.173913                       # average overall mshr miss latency
system.l2.overall_avg_mshr_miss_latency::.cpu.data 69237.606720                       # average overall mshr miss latency
system.l2.overall_avg_mshr_miss_latency::.cpu.dcache.prefetcher 70095.559143                       # average overall mshr miss latency
system.l2.overall_avg_mshr_miss_latency::.l2.prefetcher 67744.760270                       # average overall mshr miss latency
system.l2.overall_avg_mshr_miss_latency::total 69254.824235                       # average overall mshr miss latency
system.l2.replacements                              3                       # number of replacements
system.l2.WritebackDirty_hits::.writebacks        70133                       # number of WritebackDirty hits
system.l2.WritebackDirty_hits::total            70133                       # number of WritebackDirty hits
system.l2.WritebackDirty_accesses::.writebacks        70133                       # number of WritebackDirty accesses(hits+misses)
system.l2.WritebackDirty_accesses::total        70133                       # number of WritebackDirty accesses(hits+misses)
system.l2.WritebackClean_hits::.writebacks           91                       # number of WritebackClean hits
system.l2.WritebackClean_hits::total               91                       # number of WritebackClean hits
system.l2.WritebackClean_accesses::.writebacks           91                       # number of WritebackClean accesses(hits+misses)
system.l2.WritebackClean_accesses::total           91                       # number of WritebackClean accesses(hits+misses)
[...]
system.cpu.dcache.overall_mshr_misses::.cpu.data     16461646                       # number of overall MSHR misses
system.cpu.dcache.overall_mshr_misses::.cpu.dcache.prefetcher        89394                       # number of overall MSHR misses
system.cpu.dcache.overall_mshr_misses::total     16551040                       # number of overall MSHR misses
system.cpu.dcache.demand_mshr_miss_latency::.cpu.data 209545079011                       # number of demand (read+write) MSHR miss cycles
system.cpu.dcache.demand_mshr_miss_latency::total 209545079011                       # number of demand (read+write) MSHR miss cycles
system.cpu.dcache.overall_mshr_miss_latency::.cpu.data 209545079011                       # number of overall MSHR miss cycles
system.cpu.dcache.overall_mshr_miss_latency::.cpu.dcache.prefetcher   1306476147                       # number of overall MSHR miss cycles
system.cpu.dcache.overall_mshr_miss_latency::total 210851555158                       # number of overall MSHR miss cycles
system.cpu.dcache.demand_mshr_miss_rate::.cpu.data     0.488643                       # mshr miss rate for demand accesses
system.cpu.dcache.demand_mshr_miss_rate::total     0.488643                       # mshr miss rate for demand accesses
system.cpu.dcache.overall_mshr_miss_rate::.cpu.data     0.488643                       # mshr miss rate for overall accesses
system.cpu.dcache.overall_mshr_miss_rate::.cpu.dcache.prefetcher          inf                       # mshr miss rate for overall accesses
system.cpu.dcache.overall_mshr_miss_rate::total     0.491296                       # mshr miss rate for overall accesses
system.cpu.dcache.demand_avg_mshr_miss_latency::.cpu.data 12729.290802                       # average overall mshr miss latency
system.cpu.dcache.demand_avg_mshr_miss_latency::total 12729.290802                       # average overall mshr miss latency
system.cpu.dcache.overall_avg_mshr_miss_latency::.cpu.data 12729.290802                       # average overall mshr miss latency
system.cpu.dcache.overall_avg_mshr_miss_latency::.cpu.dcache.prefetcher 14614.808007                       # average overall mshr miss latency
system.cpu.dcache.overall_avg_mshr_miss_latency::total 12739.474689                       # average overall mshr miss latency
system.cpu.dcache.replacements               16548995                       # number of replacements
system.cpu.dcache.ReadReq_hits::.cpu.data     17037884                       # number of ReadReq hits
system.cpu.dcache.ReadReq_hits::total        17037884                       # number of ReadReq hits
system.cpu.dcache.ReadReq_misses::.cpu.data     16583603                       # number of ReadReq misses
system.cpu.dcache.ReadReq_misses::total      16583603                       # number of ReadReq misses
system.cpu.dcache.ReadReq_miss_latency::.cpu.data 227867883500                       # number of ReadReq miss cycles
system.cpu.dcache.ReadReq_miss_latency::total 227867883500                       # number of ReadReq miss cycles
system.cpu.dcache.ReadReq_accesses::.cpu.data     33621487                       # number of ReadReq accesses(hits+misses)
system.cpu.dcache.ReadReq_accesses::total     33621487                       # number of ReadReq accesses(hits+misses)
system.cpu.dcache.ReadReq_miss_rate::.cpu.data     0.493244                       # miss rate for ReadReq accesses
system.cpu.dcache.ReadReq_miss_rate::total     0.493244                       # miss rate for ReadReq accesses
system.cpu.dcache.ReadReq_avg_miss_latency::.cpu.data 13740.553455                       # average ReadReq miss latency
system.cpu.dcache.ReadReq_avg_miss_latency::total 13740.553455                       # average ReadReq miss latency
system.cpu.dcache.ReadReq_mshr_hits::.cpu.data       127876                       # number of ReadReq MSHR hits
system.cpu.dcache.ReadReq_mshr_hits::total       127876                       # number of ReadReq MSHR hits
system.cpu.dcache.ReadReq_mshr_misses::.cpu.data     16455727                       # number of ReadReq MSHR misses
system.cpu.dcache.ReadReq_mshr_misses::total     16455727                       # number of ReadReq MSHR misses
system.cpu.dcache.ReadReq_mshr_miss_latency::.cpu.data 209445508000                       # number of ReadReq MSHR miss cycles
system.cpu.dcache.ReadReq_mshr_miss_latency::total 209445508000                       # number of ReadReq MSHR miss cycles
system.cpu.dcache.ReadReq_mshr_miss_rate::.cpu.data     0.489441                       # mshr miss rate for ReadReq accesses
system.cpu.dcache.ReadReq_mshr_miss_rate::total     0.489441                       # mshr miss rate for ReadReq accesses
system.cpu.dcache.ReadReq_avg_mshr_miss_latency::.cpu.data 12727.818589                       # average ReadReq mshr miss latency
system.cpu.dcache.ReadReq_avg_mshr_miss_latency::total 12727.818589                       # average ReadReq mshr miss latency
system.cpu.dcache.WriteReq_hits::.cpu.data        60342                       # number of WriteReq hits
system.cpu.dcache.WriteReq_hits::total          60342                       # number of WriteReq hits
system.cpu.dcache.WriteReq_misses::.cpu.data         6662                       # number of WriteReq misses
system.cpu.dcache.WriteReq_misses::total         6662                       # number of WriteReq misses
system.cpu.dcache.WriteReq_miss_latency::.cpu.data    127230237                       # number of WriteReq miss cycles
system.cpu.dcache.WriteReq_miss_latency::total    127230237                       # number of WriteReq miss cycles
system.cpu.dcache.WriteReq_accesses::.cpu.data        67004                       # number of WriteReq accesses(hits+misses)
system.cpu.dcache.WriteReq_accesses::total        67004                       # number of WriteReq accesses(hits+misses)
system.cpu.dcache.WriteReq_miss_rate::.cpu.data     0.099427                       # miss rate for WriteReq accesses
system.cpu.dcache.WriteReq_miss_rate::total     0.099427                       # miss rate for WriteReq accesses
system.cpu.dcache.WriteReq_avg_miss_latency::.cpu.data 19097.904083                       # average WriteReq miss latency
system.cpu.dcache.WriteReq_avg_miss_latency::total 19097.904083                       # average WriteReq miss latency
system.cpu.dcache.WriteReq_mshr_hits::.cpu.data          748                       # number of WriteReq MSHR hits
system.cpu.dcache.WriteReq_mshr_hits::total          748                       # number of WriteReq MSHR hits
system.cpu.dcache.WriteReq_mshr_misses::.cpu.data         5914                       # number of WriteReq MSHR misses
system.cpu.dcache.WriteReq_mshr_misses::total         5914                       # number of WriteReq MSHR misses
system.cpu.dcache.WriteReq_mshr_miss_latency::.cpu.data     99417513                       # number of WriteReq MSHR miss cycles
system.cpu.dcache.WriteReq_mshr_miss_latency::total     99417513                       # number of WriteReq MSHR miss cycles
system.cpu.dcache.WriteReq_mshr_miss_rate::.cpu.data     0.088263                       # mshr miss rate for WriteReq accesses
system.cpu.dcache.WriteReq_mshr_miss_rate::total     0.088263                       # mshr miss rate for WriteReq accesses
system.cpu.dcache.WriteReq_avg_mshr_miss_latency::.cpu.data 16810.536524                       # average WriteReq mshr miss latency
system.cpu.dcache.WriteReq_avg_mshr_miss_latency::total 16810.536524                       # average WriteReq mshr miss latency
system.cpu.dcache.HardPFReq_mshr_misses::.cpu.dcache.prefetcher        89394                       # number of HardPFReq MSHR misses
system.cpu.dcache.HardPFReq_mshr_misses::total        89394                       # number of HardPFReq MSHR misses
system.cpu.dcache.HardPFReq_mshr_miss_latency::.cpu.dcache.prefetcher   1306476147                       # number of HardPFReq MSHR miss cycles
system.cpu.dcache.HardPFReq_mshr_miss_latency::total   1306476147                       # number of HardPFReq MSHR miss cycles
system.cpu.dcache.HardPFReq_mshr_miss_rate::.cpu.dcache.prefetcher          inf                       # mshr miss rate for HardPFReq accesses
system.cpu.dcache.HardPFReq_mshr_miss_rate::total          inf                       # mshr miss rate for HardPFReq accesses
system.cpu.dcache.HardPFReq_avg_mshr_miss_latency::.cpu.dcache.prefetcher 14614.808007                       # average HardPFReq mshr miss latency
system.cpu.dcache.HardPFReq_avg_mshr_miss_latency::total 14614.808007                       # average HardPFReq mshr miss latency
system.cpu.dcache.WriteLineReq_hits::.cpu.data            1                       # number of WriteLineReq hits
system.cpu.dcache.WriteLineReq_hits::total            1                       # number of WriteLineReq hits
system.cpu.dcache.WriteLineReq_misses::.cpu.data            6                       # number of WriteLineReq misses
system.cpu.dcache.WriteLineReq_misses::total            6                       # number of WriteLineReq misses
system.cpu.dcache.WriteLineReq_miss_latency::.cpu.data       223498                       # number of WriteLineReq miss cycles
system.cpu.dcache.WriteLineReq_miss_latency::total       223498                       # number of WriteLineReq miss cycles
system.cpu.dcache.WriteLineReq_accesses::.cpu.data            7                       # number of WriteLineReq accesses(hits+misses)
system.cpu.dcache.WriteLineReq_accesses::total            7                       # number of WriteLineReq accesses(hits+misses)
system.cpu.dcache.WriteLineReq_miss_rate::.cpu.data     0.857143                       # miss rate for WriteLineReq accesses
system.cpu.dcache.WriteLineReq_miss_rate::total     0.857143                       # miss rate for WriteLineReq accesses
system.cpu.dcache.WriteLineReq_avg_miss_latency::.cpu.data 37249.666667                       # average WriteLineReq miss latency
system.cpu.dcache.WriteLineReq_avg_miss_latency::total 37249.666667                       # average WriteLineReq miss latency
system.cpu.dcache.WriteLineReq_mshr_hits::.cpu.data            1                       # number of WriteLineReq MSHR hits
system.cpu.dcache.WriteLineReq_mshr_hits::total            1                       # number of WriteLineReq MSHR hits
system.cpu.dcache.WriteLineReq_mshr_misses::.cpu.data            5                       # number of WriteLineReq MSHR misses
system.cpu.dcache.WriteLineReq_mshr_misses::total            5                       # number of WriteLineReq MSHR misses
system.cpu.dcache.WriteLineReq_mshr_miss_latency::.cpu.data       153498                       # number of WriteLineReq MSHR miss cycles
system.cpu.dcache.WriteLineReq_mshr_miss_latency::total       153498                       # number of WriteLineReq MSHR miss cycles
system.cpu.dcache.WriteLineReq_mshr_miss_rate::.cpu.data     0.714286                       # mshr miss rate for WriteLineReq accesses
system.cpu.dcache.WriteLineReq_mshr_miss_rate::total     0.714286                       # mshr miss rate for WriteLineReq accesses
system.cpu.dcache.WriteLineReq_avg_mshr_miss_latency::.cpu.data 30699.600000                       # average WriteLineReq mshr miss latency
system.cpu.dcache.WriteLineReq_avg_mshr_miss_latency::total 30699.600000                       # average WriteLineReq mshr miss latency
system.cpu.dcache.LoadLockedReq_hits::.cpu.data            3                       # number of LoadLockedReq hits
system.cpu.dcache.LoadLockedReq_hits::total            3                       # number of LoadLockedReq hits
system.cpu.dcache.LoadLockedReq_misses::.cpu.data            1                       # number of LoadLockedReq misses
system.cpu.dcache.LoadLockedReq_misses::total            1                       # number of LoadLockedReq misses
system.cpu.dcache.LoadLockedReq_miss_latency::.cpu.data        76000                       # number of LoadLockedReq miss cycles
system.cpu.dcache.LoadLockedReq_miss_latency::total        76000                       # number of LoadLockedReq miss cycles
system.cpu.dcache.LoadLockedReq_accesses::.cpu.data            4                       # number of LoadLockedReq accesses(hits+misses)
system.cpu.dcache.LoadLockedReq_accesses::total            4                       # number of LoadLockedReq accesses(hits+misses)
system.cpu.dcache.LoadLockedReq_miss_rate::.cpu.data     0.250000                       # miss rate for LoadLockedReq accesses
system.cpu.dcache.LoadLockedReq_miss_rate::total     0.250000                       # miss rate for LoadLockedReq accesses
system.cpu.dcache.LoadLockedReq_avg_miss_latency::.cpu.data        76000                       # average LoadLockedReq miss latency
system.cpu.dcache.LoadLockedReq_avg_miss_latency::total        76000                       # average LoadLockedReq miss latency
system.cpu.dcache.LoadLockedReq_mshr_misses::.cpu.data            1                       # number of LoadLockedReq MSHR misses
system.cpu.dcache.LoadLockedReq_mshr_misses::total            1                       # number of LoadLockedReq MSHR misses
system.cpu.dcache.LoadLockedReq_mshr_miss_latency::.cpu.data        75000                       # number of LoadLockedReq MSHR miss cycles
system.cpu.dcache.LoadLockedReq_mshr_miss_latency::total        75000                       # number of LoadLockedReq MSHR miss cycles
system.cpu.dcache.LoadLockedReq_mshr_miss_rate::.cpu.data     0.250000                       # mshr miss rate for LoadLockedReq accesses
system.cpu.dcache.LoadLockedReq_mshr_miss_rate::total     0.250000                       # mshr miss rate for LoadLockedReq accesses
system.cpu.dcache.LoadLockedReq_avg_mshr_miss_latency::.cpu.data        75000                       # average LoadLockedReq mshr miss latency
system.cpu.dcache.LoadLockedReq_avg_mshr_miss_latency::total        75000                       # average LoadLockedReq mshr miss latency
system.cpu.dcache.StoreCondReq_hits::.cpu.data            4                       # number of StoreCondReq hits
system.cpu.dcache.StoreCondReq_hits::total            4                       # number of StoreCondReq hits
system.cpu.dcache.StoreCondReq_accesses::.cpu.data            4                       # number of StoreCondReq accesses(hits+misses)
system.cpu.dcache.StoreCondReq_accesses::total            4                       # number of StoreCondReq accesses(hits+misses)
system.cpu.dcache.SwapReq_hits::.cpu.data           24                       # number of SwapReq hits
system.cpu.dcache.SwapReq_hits::total              24                       # number of SwapReq hits
system.cpu.dcache.SwapReq_misses::.cpu.data            2                       # number of SwapReq misses
system.cpu.dcache.SwapReq_misses::total             2                       # number of SwapReq misses
system.cpu.dcache.SwapReq_miss_latency::.cpu.data       100000                       # number of SwapReq miss cycles
system.cpu.dcache.SwapReq_miss_latency::total       100000                       # number of SwapReq miss cycles
system.cpu.dcache.SwapReq_accesses::.cpu.data           26                       # number of SwapReq accesses(hits+misses)
system.cpu.dcache.SwapReq_accesses::total           26                       # number of SwapReq accesses(hits+misses)
system.cpu.dcache.SwapReq_miss_rate::.cpu.data     0.076923                       # miss rate for SwapReq accesses
system.cpu.dcache.SwapReq_miss_rate::total     0.076923                       # miss rate for SwapReq accesses
system.cpu.dcache.SwapReq_avg_miss_latency::.cpu.data        50000                       # average SwapReq miss latency
system.cpu.dcache.SwapReq_avg_miss_latency::total        50000                       # average SwapReq miss latency
system.cpu.dcache.SwapReq_mshr_misses::.cpu.data            2                       # number of SwapReq MSHR misses
system.cpu.dcache.SwapReq_mshr_misses::total            2                       # number of SwapReq MSHR misses
system.cpu.dcache.SwapReq_mshr_miss_latency::.cpu.data        98000                       # number of SwapReq MSHR miss cycles
system.cpu.dcache.SwapReq_mshr_miss_latency::total        98000                       # number of SwapReq MSHR miss cycles
system.cpu.dcache.SwapReq_mshr_miss_rate::.cpu.data     0.076923                       # mshr miss rate for SwapReq accesses
system.cpu.dcache.SwapReq_mshr_miss_rate::total     0.076923                       # mshr miss rate for SwapReq accesses
system.cpu.dcache.SwapReq_avg_mshr_miss_latency::.cpu.data        49000                       # average SwapReq mshr miss latency
system.cpu.dcache.SwapReq_avg_mshr_miss_latency::total        49000                       # average SwapReq mshr miss latency
system.cpu.dcache.prefetcher.pwrStateResidencyTicks::UNDEFINED  58497059500                       # Cumulative time (in ticks) in various power states
system.cpu.dcache.tags.pwrStateResidencyTicks::UNDEFINED  58497059500                       # Cumulative time (in ticks) in various power states
system.cpu.dcache.tags.tagsinuse          2043.733968                       # Cycle average of tags in use
system.cpu.dcache.tags.total_refs            33649301                       # Total number of references to valid blocks.
system.cpu.dcache.tags.sampled_refs          16551043                       # Sample count of references to valid blocks.
system.cpu.dcache.tags.avg_refs              2.033062                       # Average number of references to valid blocks.
system.cpu.dcache.tags.warmup_cycle            178500                       # Cycle when the warmup percentage was hit.
system.cpu.dcache.tags.occ_blocks::.cpu.data  1828.227470                       # Average occupied blocks per requestor
system.cpu.dcache.tags.occ_blocks::.cpu.dcache.prefetcher   215.506498                       # Average occupied blocks per requestor
system.cpu.dcache.tags.occ_percent::.cpu.data     0.892689                       # Average percentage of cache occupancy
system.cpu.dcache.tags.occ_percent::.cpu.dcache.prefetcher     0.105228                       # Average percentage of cache occupancy
system.cpu.dcache.tags.occ_percent::total     0.997917                       # Average percentage of cache occupancy
system.cpu.dcache.tags.occ_task_id_blocks::1022          233                       # Occupied blocks per task id
system.cpu.dcache.tags.occ_task_id_blocks::1024         1815                       # Occupied blocks per task id
system.cpu.dcache.tags.age_task_id_blocks_1022::0           81                       # Occupied blocks per task id
system.cpu.dcache.tags.age_task_id_blocks_1022::1            2                       # Occupied blocks per task id
system.cpu.dcache.tags.age_task_id_blocks_1022::4          150                       # Occupied blocks per task id
system.cpu.dcache.tags.age_task_id_blocks_1024::0          111                       # Occupied blocks per task id
system.cpu.dcache.tags.age_task_id_blocks_1024::1          389                       # Occupied blocks per task id
system.cpu.dcache.tags.age_task_id_blocks_1024::2          445                       # Occupied blocks per task id
system.cpu.dcache.tags.age_task_id_blocks_1024::3           16                       # Occupied blocks per task id
system.cpu.dcache.tags.age_task_id_blocks_1024::4          854                       # Occupied blocks per task id
system.cpu.dcache.tags.occ_task_id_percent::1022     0.113770                       # Percentage of cache occupancy per task id
system.cpu.dcache.tags.occ_task_id_percent::1024     0.886230                       # Percentage of cache occupancy per task id
system.cpu.dcache.tags.tag_accesses          83928107                       # Number of tag accesses
system.cpu.dcache.tags.data_accesses         83928107                       # Number of data accesses

---------- End Simulation Statistics   ----------
