
---------- Begin Simulation Statistics ----------
final_tick                                59311524000                       # Number of ticks from beginning of simulation (restored from checkpoints and never reset)
host_inst_rate                                 393835                       # Simulator instruction rate (inst/s)
host_mem_usage                                8497372                       # Number of bytes of host memory used
host_op_rate                                   458965                       # Simulator op (including micro ops) rate (op/s)
host_seconds                                   257.62                       # Real time elapsed on the host
host_tick_rate                              230228930                       # Simulator tick rate (ticks/s)
sim_freq                                 1000000000000                       # Frequency of simulated ticks
sim_insts                                   101459739                       # Number of instructions simulated
sim_ops                                     118238466                       # Number of ops (including micro ops) simulated
sim_seconds                                  0.059312                       # Number of seconds simulated
sim_ticks                                 59311524000                       # Number of ticks simulated
system.cpu.branchPred.BTBCorrect                    0                       # Number of correct BTB predictions (this stat may not work properly.
system.cpu.branchPred.BTBHitPct             99.997118                       # BTB Hit Percentage
system.cpu.branchPred.BTBHits                17208002                       # Number of BTB hits
system.cpu.branchPred.BTBLookups             17208498                       # Number of BTB lookups
system.cpu.branchPred.RASInCorrect                  1                       # Number of incorrect RAS predictions.
system.cpu.branchPred.condIncorrect             66576                       # Number of conditional branches incorrect
system.cpu.branchPred.condPredicted          17275894                       # Number of conditional branches predicted
system.cpu.branchPred.indirectHits                  0                       # Number of indirect target hits.
system.cpu.branchPred.indirectLookups             107                       # Number of indirect predictor lookups.
system.cpu.branchPred.indirectMisses              107                       # Number of indirect misses.
system.cpu.branchPred.lookups                17276972                       # Number of BP lookups
system.cpu.branchPred.usedRAS                     364                       # Number of times the RAS was used to get a target.
system.cpu.branchPredindirectMispredicted           50                       # Number of mispredicted indirect branches.
system.cpu.cc_regfile_reads                  50728545                       # number of cc regfile reads
system.cpu.cc_regfile_writes                 50729196                       # number of cc regfile writes
system.cpu.commit.amos                             26                       # Number of atomic instructions committed
system.cpu.commit.branchMispredicts             66360                       # The number of times a branch was mispredicted
system.cpu.commit.branches                   16910249                       # Number of branches committed
system.cpu.commit.bw_lim_events                 66954                       # number cycles where commit BW limit reached
system.cpu.commit.commitNonSpecStalls              77                       # The number of times commit has been forced to stall to communicate backwards
system.cpu.commit.commitSquashedInsts          253572                       # The number of squashed insts skipped by commit
system.cpu.commit.committedInsts            101525543                       # Number of instructions committed
system.cpu.commit.committedOps              118304270                       # Number of ops (including micro ops) committed
system.cpu.commit.committed_per_cycle::samples    118533353                       # Number of insts commited each cycle
system.cpu.commit.committed_per_cycle::mean     0.998067                       # Number of insts commited each cycle
system.cpu.commit.committed_per_cycle::stdev     1.621799                       # Number of insts commited each cycle
system.cpu.commit.committed_per_cycle::underflows            0      0.00%      0.00% # Number of insts commited each cycle
system.cpu.commit.committed_per_cycle::0     84942111     71.66%     71.66% # Number of insts commited each cycle
system.cpu.commit.committed_per_cycle::1         2157      0.00%     71.66% # Number of insts commited each cycle
system.cpu.commit.committed_per_cycle::2       263736      0.22%     71.89% # Number of insts commited each cycle
system.cpu.commit.committed_per_cycle::3     16554221     13.97%     85.85% # Number of insts commited each cycle
system.cpu.commit.committed_per_cycle::4     16415575     13.85%     99.70% # Number of insts commited each cycle
system.cpu.commit.committed_per_cycle::5        52494      0.04%     99.74% # Number of insts commited each cycle
system.cpu.commit.committed_per_cycle::6         1159      0.00%     99.75% # Number of insts commited each cycle
system.cpu.commit.committed_per_cycle::7       234946      0.20%     99.94% # Number of insts commited each cycle
system.cpu.commit.committed_per_cycle::8        66954      0.06%    100.00% # Number of insts commited each cycle
system.cpu.commit.committed_per_cycle::overflows            0      0.00%    100.00% # Number of insts commited each cycle
system.cpu.commit.committed_per_cycle::min_value            0                       # Number of insts commited each cycle
system.cpu.commit.committed_per_cycle::max_value            8                       # Number of insts commited each cycle
system.cpu.commit.committed_per_cycle::total    118533353                       # Number of insts commited each cycle
system.cpu.commit.fp_insts                          0                       # Number of committed floating point instructions.
system.cpu.commit.function_calls                  183                       # Number of function calls committed.
system.cpu.commit.int_insts                  84551794                       # Number of committed integer instructions.
system.cpu.commit.loads                      33621209                       # Number of loads committed
system.cpu.commit.membars                          30                       # Number of memory barriers committed
system.cpu.commit.op_class_0::No_OpClass           33      0.00%      0.00% # Class of committed instruction
system.cpu.commit.op_class_0::IntAlu         67838704     57.34%     57.34% # Class of committed instruction
system.cpu.commit.op_class_0::IntMult               9      0.00%     57.34% # Class of committed instruction
system.cpu.commit.op_class_0::IntDiv                3      0.00%     57.34% # Class of committed instruction
system.cpu.commit.op_class_0::FloatAdd              0      0.00%     57.34% # Class of committed instruction
system.cpu.commit.op_class_0::FloatCmp              0      0.00%     57.34% # Class of committed instruction
system.cpu.commit.op_class_0::FloatCvt              1      0.00%     57.34% # Class of committed instruction
system.cpu.commit.op_class_0::FloatMult             0      0.00%     57.34% # Class of committed instruction
system.cpu.commit.op_class_0::FloatMultAcc     16777216     14.18%     71.52% # Class of committed instruction
system.cpu.commit.op_class_0::FloatDiv              1      0.00%     71.52% # Class of committed instruction
system.cpu.commit.op_class_0::FloatMisc             1      0.00%     71.52% # Class of committed instruction
system.cpu.commit.op_class_0::FloatSqrt             0      0.00%     71.52% # Class of committed instruction
system.cpu.commit.op_class_0::SimdAdd              13      0.00%     71.52% # Class of committed instruction
system.cpu.commit.op_class_0::SimdAddAcc            0      0.00%     71.52% # Class of committed instruction
system.cpu.commit.op_class_0::SimdAlu              12      0.00%     71.52% # Class of committed instruction
system.cpu.commit.op_class_0::SimdCmp              12      0.00%     71.52% # Class of committed instruction
system.cpu.commit.op_class_0::SimdCvt               0      0.00%     71.52% # Class of committed instruction
system.cpu.commit.op_class_0::SimdMisc             15      0.00%     71.52% # Class of committed instruction
system.cpu.commit.op_class_0::SimdMult              0      0.00%     71.52% # Class of committed instruction
system.cpu.commit.op_class_0::SimdMultAcc            0      0.00%     71.52% # Class of committed instruction
system.cpu.commit.op_class_0::SimdShift             0      0.00%     71.52% # Class of committed instruction
system.cpu.commit.op_class_0::SimdShiftAcc            0      0.00%     71.52% # Class of committed instruction
system.cpu.commit.op_class_0::SimdDiv               0      0.00%     71.52% # Class of committed instruction
system.cpu.commit.op_class_0::SimdSqrt              0      0.00%     71.52% # Class of committed instruction
system.cpu.commit.op_class_0::SimdFloatAdd            0      0.00%     71.52% # Class of committed instruction
system.cpu.commit.op_class_0::SimdFloatAlu            0      0.00%     71.52% # Class of committed instruction
system.cpu.commit.op_class_0::SimdFloatCmp            0      0.00%     71.52% # Class of committed instruction
system.cpu.commit.op_class_0::SimdFloatCvt            0      0.00%     71.52% # Class of committed instruction
system.cpu.commit.op_class_0::SimdFloatDiv            0      0.00%     71.52% # Class of committed instruction
system.cpu.commit.op_class_0::SimdFloatMisc            0      0.00%     71.52% # Class of committed instruction
system.cpu.commit.op_class_0::SimdFloatMult            0      0.00%     71.52% # Class of committed instruction
system.cpu.commit.op_class_0::SimdFloatMultAcc            0      0.00%     71.52% # Class of committed instruction
system.cpu.commit.op_class_0::SimdFloatSqrt            0      0.00%     71.52% # Class of committed instruction
system.cpu.commit.op_class_0::SimdReduceAdd            0      0.00%     71.52% # Class of committed instruction
system.cpu.commit.op_class_0::SimdReduceAlu            0      0.00%     71.52% # Class of committed instruction
system.cpu.commit.op_class_0::SimdReduceCmp            0      0.00%     71.52% # Class of committed instruction
system.cpu.commit.op_class_0::SimdFloatReduceAdd            0      0.00%     71.52% # Class of committed instruction
system.cpu.commit.op_class_0::SimdFloatReduceCmp            0      0.00%     71.52% # Class of committed instruction
system.cpu.commit.op_class_0::SimdAes               0      0.00%     71.52% # Class of committed instruction
system.cpu.commit.op_class_0::SimdAesMix            0      0.00%     71.52% # Class of committed instruction
system.cpu.commit.op_class_0::SimdSha1Hash            0      0.00%     71.52% # Class of committed instruction
system.cpu.commit.op_class_0::SimdSha1Hash2            0      0.00%     71.52% # Class of committed instruction
system.cpu.commit.op_class_0::SimdSha256Hash            0      0.00%     71.52% # Class of committed instruction
system.cpu.commit.op_class_0::SimdSha256Hash2            0      0.00%     71.52% # Class of committed instruction
system.cpu.commit.op_class_0::SimdShaSigma2            0      0.00%     71.52% # Class of committed instruction
system.cpu.commit.op_class_0::SimdShaSigma3            0      0.00%     71.52% # Class of committed instruction
system.cpu.commit.op_class_0::SimdPredAlu            0      0.00%     71.52% # Class of committed instruction
system.cpu.commit.op_class_0::MemRead        33621209     28.42%     99.94% # Class of committed instruction
system.cpu.commit.op_class_0::MemWrite          67041      0.06%    100.00% # Class of committed instruction
system.cpu.commit.op_class_0::FloatMemRead            0      0.00%    100.00% # Class of committed instruction
system.cpu.commit.op_class_0::FloatMemWrite            0      0.00%    100.00% # Class of committed instruction
system.cpu.commit.op_class_0::IprAccess             0      0.00%    100.00% # Class of committed instruction
system.cpu.commit.op_class_0::InstPrefetch            0      0.00%    100.00% # Class of committed instruction
system.cpu.commit.op_class_0::total         118304270                       # Class of committed instruction
system.cpu.commit.refs                       33688250                       # Number of memory references committed
system.cpu.commit.swp_count                         0                       # Number of s/w prefetches committed
system.cpu.commit.vec_insts                  50462872                       # Number of committed Vector instructions.
system.cpu.committedInsts                   101459739                       # Number of Instructions Simulated
system.cpu.committedOps                     118238466                       # Number of Ops (including micro ops) Simulated
system.cpu.cpi                               1.169164                       # CPI: Cycles Per Instruction
system.cpu.cpi_total                         1.169164                       # CPI: Total CPI of All Threads
system.cpu.dcache.prefetcher.num_hwpf_issued        15689                       # number of hwpf issued
system.cpu.dcache.prefetcher.pfBufferHit     12293575                       # number of redundant prefetches already in prefetch queue
system.cpu.dcache.prefetcher.pfIdentified     24634486                       # number of prefetch candidates identified
system.cpu.dcache.prefetcher.pfInCache              0                       # number of redundant prefetches already in cache/mshr dropped
system.cpu.dcache.prefetcher.pfRemovedFull         3816                       # number of prefetches dropped due to prefetch queue size
system.cpu.dcache.prefetcher.pfSpanPage      41915614                       # number of prefetches that crossed the page
system.cpu.decode.BlockedCycles              65131229                       # Number of cycles decode is blocked
system.cpu.decode.BranchMispred                   230                       # Number of times decode detected a branch misprediction
system.cpu.decode.BranchResolved             16909088                       # Number of times decode resolved a branch
system.cpu.decode.DecodedInsts              119042182                       # Number of instructions handled by decode
system.cpu.decode.IdleCycles                 13270813                       # Number of cycles decode is idle
system.cpu.decode.RunCycles                  23764607                       # Number of cycles decode is running
system.cpu.decode.SquashCycles                  66380                       # Number of cycles decode is squashing
system.cpu.decode.SquashedInsts                241975                       # Number of squashed instructions handled by decode
system.cpu.decode.UnblockCycles              16366854                       # Number of cycles decode is unblocking
system.cpu.dtb.accesses                             0                       # DTB accesses
system.cpu.dtb.align_faults                         0                       # Number of TLB faults due to alignment restrictions
system.cpu.dtb.domain_faults                        0                       # Number of TLB faults due to domain restrictions
system.cpu.dtb.flush_entries                        0                       # Number of entries that have been flushed from TLB
system.cpu.dtb.flush_tlb                            0                       # Number of times complete TLB was flushed
system.cpu.dtb.flush_tlb_asid                       0                       # Number of times TLB was flushed by ASID
system.cpu.dtb.flush_tlb_mva                        0                       # Number of times TLB was flushed by MVA
system.cpu.dtb.flush_tlb_mva_asid                   0                       # Number of times TLB was flushed by MVA & ASID
system.cpu.dtb.hits                                 0                       # DTB hits
system.cpu.dtb.inst_accesses                        0                       # ITB inst accesses
system.cpu.dtb.inst_hits                            0                       # ITB inst hits
system.cpu.dtb.inst_misses                          0                       # ITB inst misses
system.cpu.dtb.misses                               0                       # DTB misses
system.cpu.dtb.perms_faults                         0                       # Number of TLB faults due to permissions restrictions
system.cpu.dtb.prefetch_faults                      0                       # Number of TLB faults due to prefetch
system.cpu.dtb.read_accesses                        0                       # DTB read accesses
system.cpu.dtb.read_hits                            0                       # DTB read hits
system.cpu.dtb.read_misses                          0                       # DTB read misses
system.cpu.dtb.stage2_mmu.stage2_tlb.accesses            0                       # DTB accesses
system.cpu.dtb.stage2_mmu.stage2_tlb.align_faults            0                       # Number of TLB faults due to alignment restrictions
system.cpu.dtb.stage2_mmu.stage2_tlb.domain_faults            0                       # Number of TLB faults due to domain restrictions
system.cpu.dtb.stage2_mmu.stage2_tlb.flush_entries            0                       # Number of entries that have been flushed from TLB
system.cpu.dtb.stage2_mmu.stage2_tlb.flush_tlb            0                       # Number of times complete TLB was flushed
system.cpu.dtb.stage2_mmu.stage2_tlb.flush_tlb_asid            0                       # Number of times TLB was flushed by ASID
system.cpu.dtb.stage2_mmu.stage2_tlb.flush_tlb_mva            0                       # Number of times TLB was flushed by MVA
system.cpu.dtb.stage2_mmu.stage2_tlb.flush_tlb_mva_asid            0                       # Number of times TLB was flushed by MVA & ASID
system.cpu.dtb.stage2_mmu.stage2_tlb.hits            0                       # DTB hits
system.cpu.dtb.stage2_mmu.stage2_tlb.inst_accesses            0                       # ITB inst accesses
system.cpu.dtb.stage2_mmu.stage2_tlb.inst_hits            0                       # ITB inst hits
system.cpu.dtb.stage2_mmu.stage2_tlb.inst_misses            0                       # ITB inst misses
system.cpu.dtb.stage2_mmu.stage2_tlb.misses            0                       # DTB misses
system.cpu.dtb.stage2_mmu.stage2_tlb.perms_faults            0                       # Number of TLB faults due to permissions restrictions
system.cpu.dtb.stage2_mmu.stage2_tlb.prefetch_faults            0                       # Number of TLB faults due to prefetch
system.cpu.dtb.stage2_mmu.stage2_tlb.read_accesses            0                       # DTB read accesses
system.cpu.dtb.stage2_mmu.stage2_tlb.read_hits            0                       # DTB read hits
system.cpu.dtb.stage2_mmu.stage2_tlb.read_misses            0                       # DTB read misses
system.cpu.dtb.stage2_mmu.stage2_tlb.walker.walkRequestOrigin_Requested::Data            0                       # Table walker requests started/completed, data/inst
system.cpu.dtb.stage2_mmu.stage2_tlb.walker.walkRequestOrigin_Requested::Inst            0                       # Table walker requests started/completed, data/inst
system.cpu.dtb.stage2_mmu.stage2_tlb.walker.walkRequestOrigin_Requested::total            0                       # Table walker requests started/completed, data/inst
system.cpu.dtb.stage2_mmu.stage2_tlb.walker.walkRequestOrigin_Completed::Data            0                       # Table walker requests started/completed, data/inst
system.cpu.dtb.stage2_mmu.stage2_tlb.walker.walkRequestOrigin_Completed::Inst            0                       # Table walker requests started/completed, data/inst
system.cpu.dtb.stage2_mmu.stage2_tlb.walker.walkRequestOrigin_Completed::total            0                       # Table walker requests started/completed, data/inst
system.cpu.dtb.stage2_mmu.stage2_tlb.walker.walkRequestOrigin::total            0                       # Table walker requests started/completed, data/inst
system.cpu.dtb.stage2_mmu.stage2_tlb.walker.walks            0                       # Table walker walks requested
system.cpu.dtb.stage2_mmu.stage2_tlb.write_accesses            0                       # DTB write accesses
system.cpu.dtb.stage2_mmu.stage2_tlb.write_hits            0                       # DTB write hits
system.cpu.dtb.stage2_mmu.stage2_tlb.write_misses            0                       # DTB write misses
system.cpu.dtb.walker.walkRequestOrigin_Requested::Data            0                       # Table walker requests started/completed, data/inst
system.cpu.dtb.walker.walkRequestOrigin_Requested::Inst            0                       # Table walker requests started/completed, data/inst
system.cpu.dtb.walker.walkRequestOrigin_Requested::total            0                       # Table walker requests started/completed, data/inst
system.cpu.dtb.walker.walkRequestOrigin_Completed::Data            0                       # Table walker requests started/completed, data/inst
system.cpu.dtb.walker.walkRequestOrigin_Completed::Inst            0                       # Table walker requests started/completed, data/inst
system.cpu.dtb.walker.walkRequestOrigin_Completed::total            0                       # Table walker requests started/completed, data/inst
system.cpu.dtb.walker.walkRequestOrigin::total            0                       # Table walker requests started/completed, data/inst
system.cpu.dtb.walker.walks                         0                       # Table walker walks requested
system.cpu.dtb.write_accesses                       0                       # DTB write accesses
system.cpu.dtb.write_hits                           0                       # DTB write hits
system.cpu.dtb.write_misses                         0                       # DTB write misses
system.cpu.fetch.Branches                    17276972                       # Number of branches that fetch encountered
system.cpu.fetch.CacheLines                  34625430                       # Number of cache lines fetched
system.cpu.fetch.Cycles                      83886755                       # Number of cycles fetch has run and was not squashing or blocked
system.cpu.fetch.IcacheSquashes                 23462                       # Number of outstanding Icache misses that were squashed
system.cpu.fetch.Insts                      103909894                       # Number of instructions fetch has processed
system.cpu.fetch.SquashCycles                  133192                       # Number of cycles fetch has spent squashing
system.cpu.fetch.branchRate                  0.145646                       # Number of branch fetches per cycle
system.cpu.fetch.icacheStallCycles           34646532                       # Number of cycles fetch is stalled on an Icache miss
system.cpu.fetch.predictedBranches           17208366                       # Number of branches that fetch has predicted taken
system.cpu.fetch.rate                        0.875967                       # Number of inst fetches per cycle
system.cpu.fetch.rateDist::samples          118599883                       # Number of instructions fetched each cycle (Total)
system.cpu.fetch.rateDist::mean              1.021093                       # Number of instructions fetched each cycle (Total)
system.cpu.fetch.rateDist::stdev             1.172878                       # Number of instructions fetched each cycle (Total)
system.cpu.fetch.rateDist::underflows               0      0.00%      0.00% # Number of instructions fetched each cycle (Total)
system.cpu.fetch.rateDist::0                 62959681     53.09%     53.09% # Number of instructions fetched each cycle (Total)
system.cpu.fetch.rateDist::1                  7570342      6.38%     59.47% # Number of instructions fetched each cycle (Total)
system.cpu.fetch.rateDist::2                 30678381     25.87%     85.34% # Number of instructions fetched each cycle (Total)
system.cpu.fetch.rateDist::3                 17391479     14.66%    100.00% # Number of instructions fetched each cycle (Total)
system.cpu.fetch.rateDist::overflows                0      0.00%    100.00% # Number of instructions fetched each cycle (Total)
system.cpu.fetch.rateDist::min_value                0                       # Number of instructions fetched each cycle (Total)
system.cpu.fetch.rateDist::max_value                3                       # Number of instructions fetched each cycle (Total)
system.cpu.fetch.rateDist::total            118599883                       # Number of instructions fetched each cycle (Total)
system.cpu.idleCycles                           23167                       # Total number of cycles that the CPU has spent unscheduled due to idling
system.cpu.iew.branchMispredicts                66393                       # Number of branch mispredicts detected at execute
system.cpu.iew.exec_branches                 16910588                       # Number of branches executed
system.cpu.iew.exec_nop                         65879                       # number of nop insts executed
system.cpu.iew.exec_rate                     1.355361                       # Inst execution rate
system.cpu.iew.exec_refs                     76139925                       # number of memory reference insts executed
system.cpu.iew.exec_stores                      67108                       # Number of stores executed
system.cpu.iew.exec_swp                             0                       # number of swp insts executed
system.cpu.iew.iewBlockCycles                     150                       # Number of cycles IEW is blocking
system.cpu.iew.iewDispLoadInsts              33719708                       # Number of dispatched load instructions
system.cpu.iew.iewDispNonSpecInsts                 90                       # Number of dispatched non-speculative instructions
system.cpu.iew.iewDispSquashedInsts                 0                       # Number of squashed instructions skipped by dispatch
system.cpu.iew.iewDispStoreInsts                67349                       # Number of dispatched store instructions
system.cpu.iew.iewDispatchedInsts           118550015                       # Number of instructions dispatched to IQ
system.cpu.iew.iewExecLoadInsts              76072817                       # Number of load instructions executed
system.cpu.iew.iewExecSquashedInsts             48074                       # Number of squashed instructions skipped in execute
system.cpu.iew.iewExecutedInsts             160777104                       # Number of executed instructions
system.cpu.iew.iewIQFullEvents                      0                       # Number of times the IQ has become full, causing a stall
system.cpu.iew.iewIdleCycles                        0                       # Number of cycles IEW is idle
system.cpu.iew.iewLSQFullEvents              15535952                       # Number of times the LSQ has become full, causing a stall
system.cpu.iew.iewSquashCycles                  66380                       # Number of cycles IEW is squashing
system.cpu.iew.iewUnblockCycles              15520655                       # Number of cycles IEW is unblocking
system.cpu.iew.lsq.thread0.blockedLoads             0                       # Number of blocked loads due to partial load-store forwarding
system.cpu.iew.lsq.thread0.cacheBlocked       4514947                       # Number of times an access to memory failed due to the cache being blocked
system.cpu.iew.lsq.thread0.forwLoads                9                       # Number of loads that had data forwarded from stores
system.cpu.iew.lsq.thread0.ignoredResponses            0                       # Number of memory responses ignored because the instruction is squashed
system.cpu.iew.lsq.thread0.invAddrLoads             0                       # Number of loads ignored due to an invalid address
system.cpu.iew.lsq.thread0.invAddrSwpfs             0                       # Number of software prefetches ignored due to an invalid address
system.cpu.iew.lsq.thread0.memOrderViolation            3                       # Number of memory ordering violations
system.cpu.iew.lsq.thread0.rescheduledLoads            7                       # Number of loads that were rescheduled
system.cpu.iew.lsq.thread0.squashedLoads        98499                       # Number of loads squashed
system.cpu.iew.lsq.thread0.squashedStores          308                       # Number of stores squashed
system.cpu.iew.memOrderViolationEvents              3                       # Number of memory order violations
system.cpu.iew.predictedNotTakenIncorrect          596                       # Number of branches that were predicted not taken incorrectly
system.cpu.iew.predictedTakenIncorrect          65797                       # Number of branches that were predicted taken incorrectly
system.cpu.iew.wb_consumers                 110269225                       # num instructions consuming a value
system.cpu.iew.wb_count                     118325557                       # cumulative count of insts written-back
system.cpu.iew.wb_fanout                     0.713675                       # average fanout of values written-back
system.cpu.iew.wb_producers                  78696344                       # num instructions producing a value
system.cpu.iew.wb_rate                       0.997492                       # insts written-back per cycle
system.cpu.iew.wb_sent                      118325665                       # cumulative count of insts sent to commit
system.cpu.int_regfile_reads                161119852                       # number of integer regfile reads
system.cpu.int_regfile_writes                50951191                       # number of integer regfile writes
system.cpu.ipc                               0.855312                       # IPC: Instructions Per Cycle
system.cpu.ipc_total                         0.855312                       # IPC: Total IPC of All Threads
system.cpu.iq.FU_type_0::No_OpClass                33      0.00%      0.00% # Type of FU issued
system.cpu.iq.FU_type_0::IntAlu              67884902     42.21%     42.21% # Type of FU issued
system.cpu.iq.FU_type_0::IntMult                   10      0.00%     42.21% # Type of FU issued
system.cpu.iq.FU_type_0::IntDiv                     4      0.00%     42.21% # Type of FU issued
system.cpu.iq.FU_type_0::FloatAdd                   0      0.00%     42.21% # Type of FU issued
system.cpu.iq.FU_type_0::FloatCmp                   0      0.00%     42.21% # Type of FU issued
system.cpu.iq.FU_type_0::FloatCvt                   2      0.00%     42.21% # Type of FU issued
system.cpu.iq.FU_type_0::FloatMult                  0      0.00%     42.21% # Type of FU issued
system.cpu.iq.FU_type_0::FloatMultAcc        16777216     10.43%     52.64% # Type of FU issued
system.cpu.iq.FU_type_0::FloatDiv                   2      0.00%     52.64% # Type of FU issued
system.cpu.iq.FU_type_0::FloatMisc                  2      0.00%     52.64% # Type of FU issued
system.cpu.iq.FU_type_0::FloatSqrt                  0      0.00%     52.64% # Type of FU issued
system.cpu.iq.FU_type_0::SimdAdd                   13      0.00%     52.64% # Type of FU issued
system.cpu.iq.FU_type_0::SimdAddAcc                 0      0.00%     52.64% # Type of FU issued
system.cpu.iq.FU_type_0::SimdAlu                   12      0.00%     52.64% # Type of FU issued
system.cpu.iq.FU_type_0::SimdCmp                   12      0.00%     52.64% # Type of FU issued
system.cpu.iq.FU_type_0::SimdCvt                    0      0.00%     52.64% # Type of FU issued
system.cpu.iq.FU_type_0::SimdMisc                  19      0.00%     52.64% # Type of FU issued
system.cpu.iq.FU_type_0::SimdMult                   0      0.00%     52.64% # Type of FU issued
system.cpu.iq.FU_type_0::SimdMultAcc                0      0.00%     52.64% # Type of FU issued
system.cpu.iq.FU_type_0::SimdShift                  0      0.00%     52.64% # Type of FU issued
system.cpu.iq.FU_type_0::SimdShiftAcc               0      0.00%     52.64% # Type of FU issued
system.cpu.iq.FU_type_0::SimdDiv                    0      0.00%     52.64% # Type of FU issued
system.cpu.iq.FU_type_0::SimdSqrt                   0      0.00%     52.64% # Type of FU issued
system.cpu.iq.FU_type_0::SimdFloatAdd               0      0.00%     52.64% # Type of FU issued
system.cpu.iq.FU_type_0::SimdFloatAlu               0      0.00%     52.64% # Type of FU issued
system.cpu.iq.FU_type_0::SimdFloatCmp               0      0.00%     52.64% # Type of FU issued
system.cpu.iq.FU_type_0::SimdFloatCvt               0      0.00%     52.64% # Type of FU issued
system.cpu.iq.FU_type_0::SimdFloatDiv               0      0.00%     52.64% # Type of FU issued
system.cpu.iq.FU_type_0::SimdFloatMisc              0      0.00%     52.64% # Type of FU issued
system.cpu.iq.FU_type_0::SimdFloatMult              0      0.00%     52.64% # Type of FU issued
system.cpu.iq.FU_type_0::SimdFloatMultAcc            0      0.00%     52.64% # Type of FU issued
system.cpu.iq.FU_type_0::SimdFloatSqrt              0      0.00%     52.64% # Type of FU issued
system.cpu.iq.FU_type_0::SimdReduceAdd              0      0.00%     52.64% # Type of FU issued
system.cpu.iq.FU_type_0::SimdReduceAlu              0      0.00%     52.64% # Type of FU issued
system.cpu.iq.FU_type_0::SimdReduceCmp              0      0.00%     52.64% # Type of FU issued
system.cpu.iq.FU_type_0::SimdFloatReduceAdd            0      0.00%     52.64% # Type of FU issued
system.cpu.iq.FU_type_0::SimdFloatReduceCmp            0      0.00%     52.64% # Type of FU issued
system.cpu.iq.FU_type_0::SimdAes                    0      0.00%     52.64% # Type of FU issued
system.cpu.iq.FU_type_0::SimdAesMix                 0      0.00%     52.64% # Type of FU issued
system.cpu.iq.FU_type_0::SimdSha1Hash               0      0.00%     52.64% # Type of FU issued
system.cpu.iq.FU_type_0::SimdSha1Hash2              0      0.00%     52.64% # Type of FU issued
system.cpu.iq.FU_type_0::SimdSha256Hash             0      0.00%     52.64% # Type of FU issued
system.cpu.iq.FU_type_0::SimdSha256Hash2            0      0.00%     52.64% # Type of FU issued
system.cpu.iq.FU_type_0::SimdShaSigma2              0      0.00%     52.64% # Type of FU issued
system.cpu.iq.FU_type_0::SimdShaSigma3              0      0.00%     52.64% # Type of FU issued
system.cpu.iq.FU_type_0::SimdPredAlu                0      0.00%     52.64% # Type of FU issued
system.cpu.iq.FU_type_0::MemRead             76095781     47.32%     99.96% # Type of FU issued
system.cpu.iq.FU_type_0::MemWrite               67170      0.04%    100.00% # Type of FU issued
system.cpu.iq.FU_type_0::FloatMemRead               0      0.00%    100.00% # Type of FU issued
system.cpu.iq.FU_type_0::FloatMemWrite              0      0.00%    100.00% # Type of FU issued
system.cpu.iq.FU_type_0::IprAccess                  0      0.00%    100.00% # Type of FU issued
system.cpu.iq.FU_type_0::InstPrefetch               0      0.00%    100.00% # Type of FU issued
system.cpu.iq.FU_type_0::total              160825178                       # Type of FU issued
system.cpu.iq.fp_alu_accesses                       0                       # Number of floating point alu accesses
system.cpu.iq.fp_inst_queue_reads                   0                       # Number of floating instruction queue reads
system.cpu.iq.fp_inst_queue_wakeup_accesses            0                       # Number of floating instruction queue wakeup accesses
system.cpu.iq.fp_inst_queue_writes                  0                       # Number of floating instruction queue writes
system.cpu.iq.fu_busy_cnt                    59172593                       # FU busy when requested
system.cpu.iq.fu_busy_rate                   0.367931                       # FU busy rate (busy events/executed inst)
system.cpu.iq.fu_full::No_OpClass                   0      0.00%      0.00% # attempts to use FU when none available
system.cpu.iq.fu_full::IntAlu                 2871852      4.85%      4.85% # attempts to use FU when none available
system.cpu.iq.fu_full::IntMult                      0      0.00%      4.85% # attempts to use FU when none available
system.cpu.iq.fu_full::IntDiv                       0      0.00%      4.85% # attempts to use FU when none available
system.cpu.iq.fu_full::FloatAdd                     0      0.00%      4.85% # attempts to use FU when none available
system.cpu.iq.fu_full::FloatCmp                     0      0.00%      4.85% # attempts to use FU when none available
system.cpu.iq.fu_full::FloatCvt                     0      0.00%      4.85% # attempts to use FU when none available
system.cpu.iq.fu_full::FloatMult                    0      0.00%      4.85% # attempts to use FU when none available
system.cpu.iq.fu_full::FloatMultAcc                 0      0.00%      4.85% # attempts to use FU when none available
system.cpu.iq.fu_full::FloatDiv                     0      0.00%      4.85% # attempts to use FU when none available
system.cpu.iq.fu_full::FloatMisc                    0      0.00%      4.85% # attempts to use FU when none available
system.cpu.iq.fu_full::FloatSqrt                    0      0.00%      4.85% # attempts to use FU when none available
system.cpu.iq.fu_full::SimdAdd                      0      0.00%      4.85% # attempts to use FU when none available
system.cpu.iq.fu_full::SimdAddAcc                   0      0.00%      4.85% # attempts to use FU when none available
system.cpu.iq.fu_full::SimdAlu                      1      0.00%      4.85% # attempts to use FU when none available
system.cpu.iq.fu_full::SimdCmp                      3      0.00%      4.85% # attempts to use FU when none available
system.cpu.iq.fu_full::SimdCvt                      0      0.00%      4.85% # attempts to use FU when none available
system.cpu.iq.fu_full::SimdMisc                     0      0.00%      4.85% # attempts to use FU when none available
system.cpu.iq.fu_full::SimdMult                     0      0.00%      4.85% # attempts to use FU when none available
system.cpu.iq.fu_full::SimdMultAcc                  0      0.00%      4.85% # attempts to use FU when none available
system.cpu.iq.fu_full::SimdShift                    0      0.00%      4.85% # attempts to use FU when none available
system.cpu.iq.fu_full::SimdShiftAcc                 0      0.00%      4.85% # attempts to use FU when none available
system.cpu.iq.fu_full::SimdDiv                      0      0.00%      4.85% # attempts to use FU when none available
system.cpu.iq.fu_full::SimdSqrt                     0      0.00%      4.85% # attempts to use FU when none available
system.cpu.iq.fu_full::SimdFloatAdd                 0      0.00%      4.85% # attempts to use FU when none available
system.cpu.iq.fu_full::SimdFloatAlu                 0      0.00%      4.85% # attempts to use FU when none available
system.cpu.iq.fu_full::SimdFloatCmp                 0      0.00%      4.85% # attempts to use FU when none available
system.cpu.iq.fu_full::SimdFloatCvt                 0      0.00%      4.85% # attempts to use FU when none available
system.cpu.iq.fu_full::SimdFloatDiv                 0      0.00%      4.85% # attempts to use FU when none available
system.cpu.iq.fu_full::SimdFloatMisc                0      0.00%      4.85% # attempts to use FU when none available
system.cpu.iq.fu_full::SimdFloatMult                0      0.00%      4.85% # attempts to use FU when none available
system.cpu.iq.fu_full::SimdFloatMultAcc             0      0.00%      4.85% # attempts to use FU when none available
system.cpu.iq.fu_full::SimdFloatSqrt                0      0.00%      4.85% # attempts to use FU when none available
system.cpu.iq.fu_full::SimdReduceAdd                0      0.00%      4.85% # attempts to use FU when none available
system.cpu.iq.fu_full::SimdReduceAlu                0      0.00%      4.85% # attempts to use FU when none available
system.cpu.iq.fu_full::SimdReduceCmp                0      0.00%      4.85% # attempts to use FU when none available
system.cpu.iq.fu_full::SimdFloatReduceAdd            0      0.00%      4.85% # attempts to use FU when none available
system.cpu.iq.fu_full::SimdFloatReduceCmp            0      0.00%      4.85% # attempts to use FU when none available
system.cpu.iq.fu_full::SimdAes                      0      0.00%      4.85% # attempts to use FU when none available
system.cpu.iq.fu_full::SimdAesMix                   0      0.00%      4.85% # attempts to use FU when none available
system.cpu.iq.fu_full::SimdSha1Hash                 0      0.00%      4.85% # attempts to use FU when none available
system.cpu.iq.fu_full::SimdSha1Hash2                0      0.00%      4.85% # attempts to use FU when none available
system.cpu.iq.fu_full::SimdSha256Hash               0      0.00%      4.85% # attempts to use FU when none available
system.cpu.iq.fu_full::SimdSha256Hash2              0      0.00%      4.85% # attempts to use FU when none available
system.cpu.iq.fu_full::SimdShaSigma2                0      0.00%      4.85% # attempts to use FU when none available
system.cpu.iq.fu_full::SimdShaSigma3                0      0.00%      4.85% # attempts to use FU when none available
system.cpu.iq.fu_full::SimdPredAlu                  0      0.00%      4.85% # attempts to use FU when none available
system.cpu.iq.fu_full::MemRead               56300004     95.15%    100.00% # attempts to use FU when none available
system.cpu.iq.fu_full::MemWrite                   733      0.00%    100.00% # attempts to use FU when none available
system.cpu.iq.fu_full::FloatMemRead                 0      0.00%    100.00% # attempts to use FU when none available
system.cpu.iq.fu_full::FloatMemWrite                0      0.00%    100.00% # attempts to use FU when none available
system.cpu.iq.fu_full::IprAccess                    0      0.00%    100.00% # attempts to use FU when none available
system.cpu.iq.fu_full::InstPrefetch                 0      0.00%    100.00% # attempts to use FU when none available
system.cpu.iq.int_alu_accesses               70761046                       # Number of integer alu accesses
system.cpu.iq.int_inst_queue_reads          257249383                       # Number of integer instruction queue reads
system.cpu.iq.int_inst_queue_wakeup_accesses     67862681                       # Number of integer instruction queue wakeup accesses
system.cpu.iq.int_inst_queue_writes          68034772                       # Number of integer instruction queue writes
system.cpu.iq.iqInstsAdded                  118484046                       # Number of instructions added to the IQ (excludes non-spec)
system.cpu.iq.iqInstsIssued                 160825178                       # Number of instructions issued
system.cpu.iq.iqNonSpecInstsAdded                  90                       # Number of non-speculative instructions added to the IQ
system.cpu.iq.iqSquashedInstsExamined          245669                       # Number of squashed instructions iterated over during squash; mainly for profiling
system.cpu.iq.iqSquashedInstsIssued             75117                       # Number of squashed instructions issued
system.cpu.iq.iqSquashedNonSpecRemoved             13                       # Number of squashed non-spec instructions that were removed
system.cpu.iq.iqSquashedOperandsExamined       452894                       # Number of squashed operands that are examined and possibly removed from graph
system.cpu.iq.issued_per_cycle::samples     118599883                       # Number of insts issued each cycle
system.cpu.iq.issued_per_cycle::mean         1.356032                       # Number of insts issued each cycle
system.cpu.iq.issued_per_cycle::stdev        1.054701                       # Number of insts issued each cycle
system.cpu.iq.issued_per_cycle::underflows            0      0.00%      0.00% # Number of insts issued each cycle
system.cpu.iq.issued_per_cycle::0            32386237     27.31%     27.31% # Number of insts issued each cycle
system.cpu.iq.issued_per_cycle::1            31468034     26.53%     53.84% # Number of insts issued each cycle
system.cpu.iq.issued_per_cycle::2            34996525     29.51%     83.35% # Number of insts issued each cycle
system.cpu.iq.issued_per_cycle::3            19632254     16.55%     99.90% # Number of insts issued each cycle
system.cpu.iq.issued_per_cycle::4              116833      0.10%    100.00% # Number of insts issued each cycle
system.cpu.iq.issued_per_cycle::5                   0      0.00%    100.00% # Number of insts issued each cycle
system.cpu.iq.issued_per_cycle::6                   0      0.00%    100.00% # Number of insts issued each cycle
system.cpu.iq.issued_per_cycle::7                   0      0.00%    100.00% # Number of insts issued each cycle
system.cpu.iq.issued_per_cycle::8                   0      0.00%    100.00% # Number of insts issued each cycle
system.cpu.iq.issued_per_cycle::overflows            0      0.00%    100.00% # Number of insts issued each cycle
system.cpu.iq.issued_per_cycle::min_value            0                       # Number of insts issued each cycle
system.cpu.iq.issued_per_cycle::max_value            4                       # Number of insts issued each cycle
system.cpu.iq.issued_per_cycle::total       118599883                       # Number of insts issued each cycle
system.cpu.iq.rate                           1.355767                       # Inst issue rate
system.cpu.iq.vec_alu_accesses              149236692                       # Number of vector alu accesses
system.cpu.iq.vec_inst_queue_reads          242248566                       # Number of vector instruction queue reads
system.cpu.iq.vec_inst_queue_wakeup_accesses     50462876                       # Number of vector instruction queue wakeup accesses
system.cpu.iq.vec_inst_queue_writes          50695036                       # Number of vector instruction queue writes
system.cpu.itb.accesses                             0                       # DTB accesses
system.cpu.itb.align_faults                         0                       # Number of TLB faults due to alignment restrictions
system.cpu.itb.domain_faults                        0                       # Number of TLB faults due to domain restrictions
system.cpu.itb.flush_entries                        0                       # Number of entries that have been flushed from TLB
system.cpu.itb.flush_tlb                            0                       # Number of times complete TLB was flushed
system.cpu.itb.flush_tlb_asid                       0                       # Number of times TLB was flushed by ASID
system.cpu.itb.flush_tlb_mva                        0                       # Number of times TLB was flushed by MVA
system.cpu.itb.flush_tlb_mva_asid                   0                       # Number of times TLB was flushed by MVA & ASID
system.cpu.itb.hits                                 0                       # DTB hits
system.cpu.itb.inst_accesses                        0                       # ITB inst accesses
system.cpu.itb.inst_hits                            0                       # ITB inst hits
system.cpu.itb.inst_misses                          0                       # ITB inst misses
system.cpu.itb.misses                               0                       # DTB misses
system.cpu.itb.perms_faults                         0                       # Number of TLB faults due to permissions restrictions
system.cpu.itb.prefetch_faults                      0                       # Number of TLB faults due to prefetch
system.cpu.itb.read_accesses                        0                       # DTB read accesses
system.cpu.itb.read_hits                            0                       # DTB read hits
system.cpu.itb.read_misses                          0                       # DTB read misses
system.cpu.itb.stage2_mmu.stage2_tlb.accesses            0                       # DTB accesses
system.cpu.itb.stage2_mmu.stage2_tlb.align_faults            0                       # Number of TLB faults due to alignment restrictions
system.cpu.itb.stage2_mmu.stage2_tlb.domain_faults            0                       # Number of TLB faults due to domain restrictions
system.cpu.itb.stage2_mmu.stage2_tlb.flush_entries            0                       # Number of entries that have been flushed from TLB
system.cpu.itb.stage2_mmu.stage2_tlb.flush_tlb            0                       # Number of times complete TLB was flushed
system.cpu.itb.stage2_mmu.stage2_tlb.flush_tlb_asid            0                       # Number of times TLB was flushed by ASID
system.cpu.itb.stage2_mmu.stage2_tlb.flush_tlb_mva            0                       # Number of times TLB was flushed by MVA
system.cpu.itb.stage2_mmu.stage2_tlb.flush_tlb_mva_asid            0                       # Number of times TLB was flushed by MVA & ASID
system.cpu.itb.stage2_mmu.stage2_tlb.hits            0                       # DTB hits
system.cpu.itb.stage2_mmu.stage2_tlb.inst_accesses            0                       # ITB inst accesses
system.cpu.itb.stage2_mmu.stage2_tlb.inst_hits            0                       # ITB inst hits
system.cpu.itb.stage2_mmu.stage2_tlb.inst_misses            0                       # ITB inst misses
system.cpu.itb.stage2_mmu.stage2_tlb.misses            0                       # DTB misses
system.cpu.itb.stage2_mmu.stage2_tlb.perms_faults            0                       # Number of TLB faults due to permissions restrictions
system.cpu.itb.stage2_mmu.stage2_tlb.prefetch_faults            0                       # Number of TLB faults due to prefetch
system.cpu.itb.stage2_mmu.stage2_tlb.read_accesses            0                       # DTB read accesses
system.cpu.itb.stage2_mmu.stage2_tlb.read_hits            0                       # DTB read hits
system.cpu.itb.stage2_mmu.stage2_tlb.read_misses            0                       # DTB read misses
system.cpu.itb.stage2_mmu.stage2_tlb.walker.walkRequestOrigin_Requested::Data            0                       # Table walker requests started/completed, data/inst
system.cpu.itb.stage2_mmu.stage2_tlb.walker.walkRequestOrigin_Requested::Inst            0                       # Table walker requests started/completed, data/inst
system.cpu.itb.stage2_mmu.stage2_tlb.walker.walkRequestOrigin_Requested::total            0                       # Table walker requests started/completed, data/inst
system.cpu.itb.stage2_mmu.stage2_tlb.walker.walkRequestOrigin_Completed::Data            0                       # Table walker requests started/completed, data/inst
system.cpu.itb.stage2_mmu.stage2_tlb.walker.walkRequestOrigin_Completed::Inst            0                       # Table walker requests started/completed, data/inst
system.cpu.itb.stage2_mmu.stage2_tlb.walker.walkRequestOrigin_Completed::total            0                       # Table walker requests started/completed, data/inst
system.cpu.itb.stage2_mmu.stage2_tlb.walker.walkRequestOrigin::total            0                       # Table walker requests started/completed, data/inst
system.cpu.itb.stage2_mmu.stage2_tlb.walker.walks            0                       # Table walker walks requested
system.cpu.itb.stage2_mmu.stage2_tlb.write_accesses            0                       # DTB write accesses
system.cpu.itb.stage2_mmu.stage2_tlb.write_hits            0                       # DTB write hits
system.cpu.itb.stage2_mmu.stage2_tlb.write_misses            0                       # DTB write misses
system.cpu.itb.walker.walkRequestOrigin_Requested::Data            0                       # Table walker requests started/completed, data/inst
system.cpu.itb.walker.walkRequestOrigin_Requested::Inst            0                       # Table walker requests started/completed, data/inst
system.cpu.itb.walker.walkRequestOrigin_Requested::total            0                       # Table walker requests started/completed, data/inst
system.cpu.itb.walker.walkRequestOrigin_Completed::Data            0                       # Table walker requests started/completed, data/inst
system.cpu.itb.walker.walkRequestOrigin_Completed::Inst            0                       # Table walker requests started/completed, data/inst
system.cpu.itb.walker.walkRequestOrigin_Completed::total            0                       # Table walker requests started/completed, data/inst
system.cpu.itb.walker.walkRequestOrigin::total            0                       # Table walker requests started/completed, data/inst
system.cpu.itb.walker.walks                         0                       # Table walker walks requested
system.cpu.itb.write_accesses                       0                       # DTB write accesses
system.cpu.itb.write_hits                           0                       # DTB write hits
system.cpu.itb.write_misses                         0                       # DTB write misses
system.cpu.memDep0.conflictingLoads                 0                       # Number of conflicting loads.
system.cpu.memDep0.conflictingStores                4                       # Number of conflicting stores.
system.cpu.memDep0.insertedLoads             33719708                       # Number of loads inserted to the mem dependence unit.
system.cpu.memDep0.insertedStores               67349                       # Number of stores inserted to the mem dependence unit.
system.cpu.misc_regfile_reads               481591636                       # number of misc regfile reads
system.cpu.misc_regfile_writes               16777287                       # number of misc regfile writes
system.cpu.numCycles                        118623050                       # number of cpu cycles simulated
system.cpu.numWorkItemsCompleted                    0                       # number of work items this cpu completed
system.cpu.numWorkItemsStarted                      0                       # number of work items this cpu started
system.cpu.rename.BlockCycles                17815313                       # Number of cycles rename is blocking
system.cpu.rename.CommittedMaps             168766901                       # Number of HB maps that are committed
system.cpu.rename.FullRegisterEvents               41                       # Number of times there has been no free registers
system.cpu.rename.IdleCycles                 21608748                       # Number of cycles rename is idle
system.cpu.rename.LQFullEvents               39155960                       # Number of times rename has blocked due to LQ full
system.cpu.rename.ROBFullEvents              34268347                       # Number of times rename has blocked due to ROB full
system.cpu.rename.RenameLookups             338289187                       # Number of register rename lookups that rename has made
system.cpu.rename.RenamedInsts              118656815                       # Number of instructions processed by rename
system.cpu.rename.RenamedOperands           169215299                       # Number of destination operands rename has renamed
system.cpu.rename.RunCycles                  30538375                       # Number of cycles rename is running
system.cpu.rename.SQFullEvents                   1328                       # Number of times rename has blocked due to SQ full
system.cpu.rename.SquashCycles                  66380                       # Number of cycles rename is squashing
system.cpu.rename.SquashedInsts                144472                       # Number of squashed instructions processed by rename
system.cpu.rename.UnblockCycles              48568322                       # Number of cycles rename is unblocking
system.cpu.rename.UndoneMaps                   448398                       # Number of HB maps that are undone due to squashing
system.cpu.rename.int_rename_lookups        118886724                       # Number of integer rename lookups
system.cpu.rename.serializeStallCycles           2745                       # count of cycles rename stalled for serializing inst
system.cpu.rename.serializingInsts                 68                       # count of serializing insts renamed
system.cpu.rename.skidInsts                  34158374                       # count of insts added to the skid buffer
system.cpu.rename.tempSerializingInsts             26                       # count of temporary serializing insts renamed
system.cpu.rename.vec_rename_lookups         50525955                       # Number of vector rename lookups
system.cpu.rob.rob_reads                    237024033                       # The number of ROB reads
system.cpu.rob.rob_writes                   237182215                       # The number of ROB writes
system.cpu.timesIdled                             307                       # Number of times that the entire CPU went into an idle state and unscheduled itself
system.cpu.vec_regfile_reads                 50397359                       # number of vector regfile reads
system.cpu.vec_regfile_writes                50397247                       # number of vector regfile writes
system.cpu.workload.numSyscalls                    16                       # Number of system calls
system.l2.prefetcher.num_hwpf_issued             9445                       # number of hwpf issued
system.l2.prefetcher.pfBufferHit                    2                       # number of redundant prefetches already in prefetch queue
system.l2.prefetcher.pfIdentified                9452                       # number of prefetch candidates identified
system.l2.prefetcher.pfInCache                      0                       # number of redundant prefetches already in cache/mshr dropped
system.l2.prefetcher.pfRemovedFull                  0                       # number of prefetches dropped due to prefetch queue size
system.l2.prefetcher.pfSpanPage                   322                       # number of prefetches that crossed the page
system.membus.snoop_filter.hit_multi_requests            0                       # Number of requests hitting in the snoop filter with multiple (>1) holders of the requested data.
system.membus.snoop_filter.hit_multi_snoops            0                       # Number of snoops hitting in the snoop filter with multiple (>1) holders of the requested data.
system.membus.snoop_filter.hit_single_requests            1                       # Number of requests hitting in the snoop filter with a single holder of the requested data.
system.membus.snoop_filter.hit_single_snoops            0                       # Number of snoops hitting in the snoop filter with a single holder of the requested data.
system.membus.snoop_filter.tot_requests         13124                       # Total number of requests made to the snoop filter.
system.membus.snoop_filter.tot_snoops               0                       # Total number of snoops made to the snoop filter.
system.tol2bus.snoop_filter.hit_multi_requests            4                       # Number of requests hitting in the snoop filter with multiple (>1) holders of the requested data.
system.tol2bus.snoop_filter.hit_multi_snoops            0                       # Number of snoops hitting in the snoop filter with multiple (>1) holders of the requested data.
system.tol2bus.snoop_filter.hit_single_requests     16920689                       # Number of requests hitting in the snoop filter with a single holder of the requested data.
system.tol2bus.snoop_filter.hit_single_snoops            9                       # Number of snoops hitting in the snoop filter with a single holder of the requested data.
system.tol2bus.snoop_filter.tot_requests     33843759                       # Total number of requests made to the snoop filter.
system.tol2bus.snoop_filter.tot_snoops              9                       # Total number of snoops made to the snoop filter.
system.membus.pwrStateResidencyTicks::UNDEFINED  59311524000                       # Cumulative time (in ticks) in various power states
system.membus.trans_dist::ReadResp              13069                       # Transaction distribution
system.membus.trans_dist::CleanEvict                1                       # Transaction distribution
system.membus.trans_dist::ReadExReq                53                       # Transaction distribution
system.membus.trans_dist::ReadExResp               53                       # Transaction distribution
system.membus.trans_dist::ReadSharedReq         13069                       # Transaction distribution
system.membus.trans_dist::InvalidateReq             1                       # Transaction distribution
system.membus.pkt_count_system.l2.mem_side::system.mem_ctrls.port        26246                       # Packet count per connected master and slave (bytes)
system.membus.pkt_count::total                  26246                       # Packet count per connected master and slave (bytes)
system.membus.pkt_size_system.l2.mem_side::system.mem_ctrls.port       839808                       # Cumulative packet size per connected master and slave (bytes)
system.membus.pkt_size::total                  839808                       # Cumulative packet size per connected master and slave (bytes)
system.membus.snoops                                0                       # Total snoops (count)
system.membus.snoopTraffic                          0                       # Total snoop traffic (bytes)
system.membus.snoop_fanout::samples             13123                       # Request fanout histogram
system.membus.snoop_fanout::mean                    0                       # Request fanout histogram
system.membus.snoop_fanout::stdev                   0                       # Request fanout histogram
system.membus.snoop_fanout::underflows              0      0.00%      0.00% # Request fanout histogram
system.membus.snoop_fanout::0                   13123    100.00%    100.00% # Request fanout histogram
system.membus.snoop_fanout::1                       0      0.00%    100.00% # Request fanout histogram
system.membus.snoop_fanout::overflows               0      0.00%    100.00% # Request fanout histogram
system.membus.snoop_fanout::min_value               0                       # Request fanout histogram
system.membus.snoop_fanout::max_value               0                       # Request fanout histogram
system.membus.snoop_fanout::total               13123                       # Request fanout histogram
system.membus.respLayer1.occupancy           67239325                       # Layer occupancy (ticks)
system.membus.respLayer1.utilization              0.1                       # Layer utilization (%)
system.membus.reqLayer0.occupancy            15312433                       # Layer occupancy (ticks)
system.membus.reqLayer0.utilization               0.0                       # Layer utilization (%)
system.tol2bus.pwrStateResidencyTicks::UNDEFINED  59311524000                       # Cumulative time (in ticks) in various power states
system.tol2bus.trans_dist::ReadResp          16918863                       # Transaction distribution
system.tol2bus.trans_dist::WritebackDirty        68722                       # Transaction distribution
system.tol2bus.trans_dist::WritebackClean           90                       # Transaction distribution
system.tol2bus.trans_dist::CleanEvict        16851882                       # Transaction distribution
system.tol2bus.trans_dist::HardPFReq            12632                       # Transaction distribution
system.tol2bus.trans_dist::ReadExReq             4204                       # Transaction distribution
system.tol2bus.trans_dist::ReadExResp            4204                       # Transaction distribution
system.tol2bus.trans_dist::ReadCleanReq           425                       # Transaction distribution
system.tol2bus.trans_dist::ReadSharedReq     16918439                       # Transaction distribution
system.tol2bus.trans_dist::InvalidateReq            3                       # Transaction distribution
system.tol2bus.trans_dist::InvalidateResp            3                       # Transaction distribution
system.tol2bus.pkt_count_system.cpu.icache.mem_side::system.l2.cpu_side          939                       # Packet count per connected master and slave (bytes)
system.tol2bus.pkt_count_system.cpu.dcache.mem_side::system.l2.cpu_side     50765890                       # Packet count per connected master and slave (bytes)
system.tol2bus.pkt_count::total              50766829                       # Packet count per connected master and slave (bytes)
system.tol2bus.pkt_size_system.cpu.icache.mem_side::system.l2.cpu_side        32896                       # Cumulative packet size per connected master and slave (bytes)
system.tol2bus.pkt_size_system.cpu.dcache.mem_side::system.l2.cpu_side   1087447360                       # Cumulative packet size per connected master and slave (bytes)
system.tol2bus.pkt_size::total             1087480256                       # Cumulative packet size per connected master and slave (bytes)
system.tol2bus.snoops                           12638                       # Total snoops (count)
system.tol2bus.snoopTraffic                         0                       # Total snoop traffic (bytes)
system.tol2bus.snoop_fanout::samples         16935709                       # Request fanout histogram
system.tol2bus.snoop_fanout::mean            0.000001                       # Request fanout histogram
system.tol2bus.snoop_fanout::stdev           0.000909                       # Request fanout histogram
system.tol2bus.snoop_fanout::underflows             0      0.00%      0.00% # Request fanout histogram
system.tol2bus.snoop_fanout::0               16935695    100.00%    100.00% # Request fanout histogram
system.tol2bus.snoop_fanout::1                     14      0.00%    100.00% # Request fanout histogram
system.tol2bus.snoop_fanout::2                      0      0.00%    100.00% # Request fanout histogram
system.tol2bus.snoop_fanout::overflows              0      0.00%    100.00% # Request fanout histogram
system.tol2bus.snoop_fanout::min_value              0                       # Request fanout histogram
system.tol2bus.snoop_fanout::max_value              1                       # Request fanout histogram
system.tol2bus.snoop_fanout::total           16935709                       # Request fanout histogram
system.tol2bus.reqLayer0.occupancy        16996472943                       # Layer occupancy (ticks)
system.tol2bus.reqLayer0.utilization             28.7                       # Layer utilization (%)
system.tol2bus.respLayer1.occupancy       25383966499                       # Layer occupancy (ticks)
system.tol2bus.respLayer1.utilization            42.8                       # Layer utilization (%)
system.tol2bus.respLayer0.occupancy            636998                       # Layer occupancy (ticks)
system.tol2bus.respLayer0.utilization             0.0                       # Layer utilization (%)
system.voltage_domain.voltage                       1                       # Voltage in Volts
system.clk_domain.clock                          1000                       # Clock period in ticks
system.l2.pwrStateResidencyTicks::UNDEFINED  59311524000                       # Cumulative time (in ticks) in various power states
system.l2.demand_hits::.cpu.inst                  231                       # number of demand (read+write) hits
system.l2.demand_hits::.cpu.data             16907234                       # number of demand (read+write) hits
system.l2.demand_hits::.cpu.dcache.prefetcher        10716                       # number of demand (read+write) hits
system.l2.demand_hits::total                 16918181                       # number of demand (read+write) hits
system.l2.overall_hits::.cpu.inst                 231                       # number of overall hits
system.l2.overall_hits::.cpu.data            16907234                       # number of overall hits
system.l2.overall_hits::.cpu.dcache.prefetcher        10716                       # number of overall hits
system.l2.overall_hits::total                16918181                       # number of overall hits
system.l2.demand_misses::.cpu.inst                194                       # number of demand (read+write) misses
system.l2.demand_misses::.cpu.data               3802                       # number of demand (read+write) misses
system.l2.demand_misses::.cpu.dcache.prefetcher          891                       # number of demand (read+write) misses
system.l2.demand_misses::total                   4887                       # number of demand (read+write) misses
system.l2.overall_misses::.cpu.inst               194                       # number of overall misses
system.l2.overall_misses::.cpu.data              3802                       # number of overall misses
system.l2.overall_misses::.cpu.dcache.prefetcher          891                       # number of overall misses
system.l2.overall_misses::total                  4887                       # number of overall misses
system.l2.demand_miss_latency::.cpu.inst     16909500                       # number of demand (read+write) miss cycles
system.l2.demand_miss_latency::.cpu.data    336784000                       # number of demand (read+write) miss cycles
system.l2.demand_miss_latency::.cpu.dcache.prefetcher     72907830                       # number of demand (read+write) miss cycles
system.l2.demand_miss_latency::total        426601330                       # number of demand (read+write) miss cycles
system.l2.overall_miss_latency::.cpu.inst     16909500                       # number of overall miss cycles
system.l2.overall_miss_latency::.cpu.data    336784000                       # number of overall miss cycles
system.l2.overall_miss_latency::.cpu.dcache.prefetcher     72907830                       # number of overall miss cycles
system.l2.overall_miss_latency::total       426601330                       # number of overall miss cycles
system.l2.demand_accesses::.cpu.inst              425                       # number of demand (read+write) accesses
system.l2.demand_accesses::.cpu.data         16911036                       # number of demand (read+write) accesses
system.l2.demand_accesses::.cpu.dcache.prefetcher        11607                       # number of demand (read+write) accesses
system.l2.demand_accesses::total             16923068                       # number of demand (read+write) accesses
system.l2.overall_accesses::.cpu.inst             425                       # number of overall (read+write) accesses
system.l2.overall_accesses::.cpu.data        16911036                       # number of overall (read+write) accesses
system.l2.overall_accesses::.cpu.dcache.prefetcher        11607                       # number of overall (read+write) accesses
system.l2.overall_accesses::total            16923068                       # number of overall (read+write) accesses
system.l2.demand_miss_rate::.cpu.inst        0.456471                       # miss rate for demand accesses
system.l2.demand_miss_rate::.cpu.data        0.000225                       # miss rate for demand accesses
system.l2.demand_miss_rate::.cpu.dcache.prefetcher     0.076764                       # miss rate for demand accesses
system.l2.demand_miss_rate::total            0.000289                       # miss rate for demand accesses
system.l2.overall_miss_rate::.cpu.inst       0.456471                       # miss rate for overall accesses
system.l2.overall_miss_rate::.cpu.data       0.000225                       # miss rate for overall accesses
system.l2.overall_miss_rate::.cpu.dcache.prefetcher     0.076764                       # miss rate for overall accesses
system.l2.overall_miss_rate::total           0.000289                       # miss rate for overall accesses
system.l2.demand_avg_miss_latency::.cpu.inst 87162.371134                       # average overall miss latency
system.l2.demand_avg_miss_latency::.cpu.data 88580.746975                       # average overall miss latency
system.l2.demand_avg_miss_latency::.cpu.dcache.prefetcher 81826.969697                       # average overall miss latency
system.l2.demand_avg_miss_latency::total 87293.089830                       # average overall miss latency
system.l2.overall_avg_miss_latency::.cpu.inst 87162.371134                       # average overall miss latency
system.l2.overall_avg_miss_latency::.cpu.data 88580.746975                       # average overall miss latency
system.l2.overall_avg_miss_latency::.cpu.dcache.prefetcher 81826.969697                       # average overall miss latency
system.l2.overall_avg_miss_latency::total 87293.089830                       # average overall miss latency
system.l2.blocked_cycles::no_mshrs                  0                       # number of cycles access was blocked
system.l2.blocked_cycles::no_targets                0                       # number of cycles access was blocked
system.l2.blocked::no_mshrs                         0                       # number of cycles access was blocked
system.l2.blocked::no_targets                       0                       # number of cycles access was blocked
system.l2.avg_blocked_cycles::no_mshrs            nan                       # average number of cycles each access was blocked
system.l2.avg_blocked_cycles::no_targets          nan                       # average number of cycles each access was blocked
system.l2.unused_prefetches                         3                       # number of HardPF blocks evicted w/o reference
system.l2.demand_mshr_hits::.cpu.inst               3                       # number of demand (read+write) MSHR hits
system.l2.demand_mshr_hits::.cpu.data              20                       # number of demand (read+write) MSHR hits
system.l2.demand_mshr_hits::.cpu.dcache.prefetcher          212                       # number of demand (read+write) MSHR hits
system.l2.demand_mshr_hits::total                 235                       # number of demand (read+write) MSHR hits
system.l2.overall_mshr_hits::.cpu.inst              3                       # number of overall MSHR hits
system.l2.overall_mshr_hits::.cpu.data             20                       # number of overall MSHR hits
system.l2.overall_mshr_hits::.cpu.dcache.prefetcher          212                       # number of overall MSHR hits
system.l2.overall_mshr_hits::total                235                       # number of overall MSHR hits
system.l2.demand_mshr_misses::.cpu.inst           191                       # number of demand (read+write) MSHR misses
system.l2.demand_mshr_misses::.cpu.data          3782                       # number of demand (read+write) MSHR misses
system.l2.demand_mshr_misses::.cpu.dcache.prefetcher          679                       # number of demand (read+write) MSHR misses
system.l2.demand_mshr_misses::total              4652                       # number of demand (read+write) MSHR misses
system.l2.overall_mshr_misses::.cpu.inst          191                       # number of overall MSHR misses
system.l2.overall_mshr_misses::.cpu.data         3782                       # number of overall MSHR misses
system.l2.overall_mshr_misses::.cpu.dcache.prefetcher          679                       # number of overall MSHR misses
system.l2.overall_mshr_misses::.l2.prefetcher         8470                       # number of overall MSHR misses
system.l2.overall_mshr_misses::total            13122                       # number of overall MSHR misses
system.l2.demand_mshr_miss_latency::.cpu.inst     14844500                       # number of demand (read+write) MSHR miss cycles
system.l2.demand_mshr_miss_latency::.cpu.data    297633000                       # number of demand (read+write) MSHR miss cycles
system.l2.demand_mshr_miss_latency::.cpu.dcache.prefetcher     54628315                       # number of demand (read+write) MSHR miss cycles
system.l2.demand_mshr_miss_latency::total    367105815                       # number of demand (read+write) MSHR miss cycles
system.l2.overall_mshr_miss_latency::.cpu.inst     14844500                       # number of overall MSHR miss cycles
system.l2.overall_mshr_miss_latency::.cpu.data    297633000                       # number of overall MSHR miss cycles
system.l2.overall_mshr_miss_latency::.cpu.dcache.prefetcher     54628315                       # number of overall MSHR miss cycles
system.l2.overall_mshr_miss_latency::.l2.prefetcher    584157954                       # number of overall MSHR miss cycles
system.l2.overall_mshr_miss_latency::total    951263769                       # number of overall MSHR miss cycles
system.l2.demand_mshr_miss_rate::.cpu.inst     0.449412                       # mshr miss rate for demand accesses
system.l2.demand_mshr_miss_rate::.cpu.data     0.000224                       # mshr miss rate for demand accesses
system.l2.demand_mshr_miss_rate::.cpu.dcache.prefetcher     0.058499                       # mshr miss rate for demand accesses
system.l2.demand_mshr_miss_rate::total       0.000275                       # mshr miss rate for demand accesses
system.l2.overall_mshr_miss_rate::.cpu.inst     0.449412                       # mshr miss rate for overall accesses
system.l2.overall_mshr_miss_rate::.cpu.data     0.000224                       # mshr miss rate for overall accesses
system.l2.overall_mshr_miss_rate::.cpu.dcache.prefetcher     0.058499                       # mshr miss rate for overall accesses
system.l2.overall_mshr_miss_rate::.l2.prefetcher          inf                       # mshr miss rate for overall accesses
system.l2.overall_mshr_miss_rate::total      0.000775                       # mshr miss rate for overall accesses
system.l2.demand_avg_mshr_miss_latency::.cpu.inst 77719.895288                       # average overall mshr miss latency
system.l2.demand_avg_mshr_miss_latency::.cpu.data 78697.250132                       # average overall mshr miss latency
system.l2.demand_avg_mshr_miss_latency::.cpu.dcache.prefetcher 80454.072165                       # average overall mshr miss latency
system.l2.demand_avg_mshr_miss_latency::total 78913.545787                       # average overall mshr miss latency
system.l2.overall_avg_mshr_miss_latency::.cpu.inst 77719.895288                       # average overall mshr miss latency
system.l2.overall_avg_mshr_miss_latency::.cpu.data 78697.250132                       # average overall mshr miss latency
system.l2.overall_avg_mshr_miss_latency::.cpu.dcache.prefetcher 80454.072165                       # average overall mshr miss latency
system.l2.overall_avg_mshr_miss_latency::.l2.prefetcher 68967.881228                       # average overall mshr miss latency
system.l2.overall_avg_mshr_miss_latency::total 72493.809556                       # average overall mshr miss latency
system.l2.replacements                              6                       # number of replacements
system.l2.WritebackDirty_hits::.writebacks        68722                       # number of WritebackDirty hits
system.l2.WritebackDirty_hits::total            68722                       # number of WritebackDirty hits
system.l2.WritebackDirty_accesses::.writebacks        68722                       # number of WritebackDirty accesses(hits+misses)
system.l2.WritebackDirty_accesses::total        68722                       # number of WritebackDirty accesses(hits+misses)
system.l2.WritebackClean_hits::.writebacks           90                       # number of WritebackClean hits
[...]
system.cpu.dcache.overall_mshr_misses::.cpu.data     16911037                       # number of overall MSHR misses
system.cpu.dcache.overall_mshr_misses::.cpu.dcache.prefetcher        11607                       # number of overall MSHR misses
system.cpu.dcache.overall_mshr_misses::total     16922644                       # number of overall MSHR misses
system.cpu.dcache.demand_mshr_miss_latency::.cpu.data 215588536547                       # number of demand (read+write) MSHR miss cycles
system.cpu.dcache.demand_mshr_miss_latency::total 215588536547                       # number of demand (read+write) MSHR miss cycles
system.cpu.dcache.overall_mshr_miss_latency::.cpu.data 215588536547                       # number of overall MSHR miss cycles
system.cpu.dcache.overall_mshr_miss_latency::.cpu.dcache.prefetcher    202533924                       # number of overall MSHR miss cycles
system.cpu.dcache.overall_mshr_miss_latency::total 215791070471                       # number of overall MSHR miss cycles
system.cpu.dcache.demand_mshr_miss_rate::.cpu.data     0.501982                       # mshr miss rate for demand accesses
system.cpu.dcache.demand_mshr_miss_rate::total     0.501982                       # mshr miss rate for demand accesses
system.cpu.dcache.overall_mshr_miss_rate::.cpu.data     0.501982                       # mshr miss rate for overall accesses
system.cpu.dcache.overall_mshr_miss_rate::.cpu.dcache.prefetcher          inf                       # mshr miss rate for overall accesses
system.cpu.dcache.overall_mshr_miss_rate::total     0.502326                       # mshr miss rate for overall accesses
system.cpu.dcache.demand_avg_mshr_miss_latency::.cpu.data 12748.392458                       # average overall mshr miss latency
system.cpu.dcache.demand_avg_mshr_miss_latency::total 12748.392458                       # average overall mshr miss latency
system.cpu.dcache.overall_avg_mshr_miss_latency::.cpu.data 12748.392458                       # average overall mshr miss latency
system.cpu.dcache.overall_avg_mshr_miss_latency::.cpu.dcache.prefetcher 17449.291290                       # average overall mshr miss latency
system.cpu.dcache.overall_avg_mshr_miss_latency::total 12751.616737                       # average overall mshr miss latency
system.cpu.dcache.replacements               16920598                       # number of replacements
system.cpu.dcache.ReadReq_hits::.cpu.data     16595429                       # number of ReadReq hits
system.cpu.dcache.ReadReq_hits::total        16595429                       # number of ReadReq hits
system.cpu.dcache.ReadReq_misses::.cpu.data     17026125                       # number of ReadReq misses
system.cpu.dcache.ReadReq_misses::total      17026125                       # number of ReadReq misses
system.cpu.dcache.ReadReq_miss_latency::.cpu.data 233639988000                       # number of ReadReq miss cycles
system.cpu.dcache.ReadReq_miss_latency::total 233639988000                       # number of ReadReq miss cycles
system.cpu.dcache.ReadReq_accesses::.cpu.data     33621554                       # number of ReadReq accesses(hits+misses)
system.cpu.dcache.ReadReq_accesses::total     33621554                       # number of ReadReq accesses(hits+misses)
system.cpu.dcache.ReadReq_miss_rate::.cpu.data     0.506405                       # miss rate for ReadReq accesses
system.cpu.dcache.ReadReq_miss_rate::total     0.506405                       # miss rate for ReadReq accesses
system.cpu.dcache.ReadReq_avg_miss_latency::.cpu.data 13722.440544                       # average ReadReq miss latency
system.cpu.dcache.ReadReq_avg_miss_latency::total 13722.440544                       # average ReadReq miss latency
system.cpu.dcache.ReadReq_mshr_hits::.cpu.data       119294                       # number of ReadReq MSHR hits
system.cpu.dcache.ReadReq_mshr_hits::total       119294                       # number of ReadReq MSHR hits
system.cpu.dcache.ReadReq_mshr_misses::.cpu.data     16906831                       # number of ReadReq MSHR misses
system.cpu.dcache.ReadReq_mshr_misses::total     16906831                       # number of ReadReq MSHR misses
system.cpu.dcache.ReadReq_mshr_miss_latency::.cpu.data 215530460000                       # number of ReadReq MSHR miss cycles
system.cpu.dcache.ReadReq_mshr_miss_latency::total 215530460000                       # number of ReadReq MSHR miss cycles
system.cpu.dcache.ReadReq_mshr_miss_rate::.cpu.data     0.502857                       # mshr miss rate for ReadReq accesses
system.cpu.dcache.ReadReq_mshr_miss_rate::total     0.502857                       # mshr miss rate for ReadReq accesses
system.cpu.dcache.ReadReq_avg_mshr_miss_latency::.cpu.data 12748.128848                       # average ReadReq mshr miss latency
system.cpu.dcache.ReadReq_avg_mshr_miss_latency::total 12748.128848                       # average ReadReq mshr miss latency
system.cpu.dcache.WriteReq_hits::.cpu.data        62419                       # number of WriteReq hits
system.cpu.dcache.WriteReq_hits::total          62419                       # number of WriteReq hits
system.cpu.dcache.WriteReq_misses::.cpu.data         4585                       # number of WriteReq misses
system.cpu.dcache.WriteReq_misses::total         4585                       # number of WriteReq misses
system.cpu.dcache.WriteReq_miss_latency::.cpu.data     78822515                       # number of WriteReq miss cycles
system.cpu.dcache.WriteReq_miss_latency::total     78822515                       # number of WriteReq miss cycles
system.cpu.dcache.WriteReq_accesses::.cpu.data        67004                       # number of WriteReq accesses(hits+misses)
system.cpu.dcache.WriteReq_accesses::total        67004                       # number of WriteReq accesses(hits+misses)
system.cpu.dcache.WriteReq_miss_rate::.cpu.data     0.068429                       # miss rate for WriteReq accesses
system.cpu.dcache.WriteReq_miss_rate::total     0.068429                       # miss rate for WriteReq accesses
system.cpu.dcache.WriteReq_avg_miss_latency::.cpu.data 17191.388222                       # average WriteReq miss latency
system.cpu.dcache.WriteReq_avg_miss_latency::total 17191.388222                       # average WriteReq miss latency
system.cpu.dcache.WriteReq_mshr_hits::.cpu.data          382                       # number of WriteReq MSHR hits
system.cpu.dcache.WriteReq_mshr_hits::total          382                       # number of WriteReq MSHR hits
system.cpu.dcache.WriteReq_mshr_misses::.cpu.data         4203                       # number of WriteReq MSHR misses
system.cpu.dcache.WriteReq_mshr_misses::total         4203                       # number of WriteReq MSHR misses
system.cpu.dcache.WriteReq_mshr_miss_latency::.cpu.data     58022547                       # number of WriteReq MSHR miss cycles
system.cpu.dcache.WriteReq_mshr_miss_latency::total     58022547                       # number of WriteReq MSHR miss cycles
system.cpu.dcache.WriteReq_mshr_miss_rate::.cpu.data     0.062728                       # mshr miss rate for WriteReq accesses
system.cpu.dcache.WriteReq_mshr_miss_rate::total     0.062728                       # mshr miss rate for WriteReq accesses
system.cpu.dcache.WriteReq_avg_mshr_miss_latency::.cpu.data 13805.031406                       # average WriteReq mshr miss latency
system.cpu.dcache.WriteReq_avg_mshr_miss_latency::total 13805.031406                       # average WriteReq mshr miss latency
system.cpu.dcache.HardPFReq_mshr_misses::.cpu.dcache.prefetcher        11607                       # number of HardPFReq MSHR misses
system.cpu.dcache.HardPFReq_mshr_misses::total        11607                       # number of HardPFReq MSHR misses
system.cpu.dcache.HardPFReq_mshr_miss_latency::.cpu.dcache.prefetcher    202533924                       # number of HardPFReq MSHR miss cycles
system.cpu.dcache.HardPFReq_mshr_miss_latency::total    202533924                       # number of HardPFReq MSHR miss cycles
system.cpu.dcache.HardPFReq_mshr_miss_rate::.cpu.dcache.prefetcher          inf                       # mshr miss rate for HardPFReq accesses
system.cpu.dcache.HardPFReq_mshr_miss_rate::total          inf                       # mshr miss rate for HardPFReq accesses
system.cpu.dcache.HardPFReq_avg_mshr_miss_latency::.cpu.dcache.prefetcher 17449.291290                       # average HardPFReq mshr miss latency
system.cpu.dcache.HardPFReq_avg_mshr_miss_latency::total 17449.291290                       # average HardPFReq mshr miss latency
system.cpu.dcache.WriteLineReq_hits::.cpu.data            2                       # number of WriteLineReq hits
system.cpu.dcache.WriteLineReq_hits::total            2                       # number of WriteLineReq hits
system.cpu.dcache.WriteLineReq_misses::.cpu.data            5                       # number of WriteLineReq misses
system.cpu.dcache.WriteLineReq_misses::total            5                       # number of WriteLineReq misses
system.cpu.dcache.WriteLineReq_miss_latency::.cpu.data       127500                       # number of WriteLineReq miss cycles
system.cpu.dcache.WriteLineReq_miss_latency::total       127500                       # number of WriteLineReq miss cycles
system.cpu.dcache.WriteLineReq_accesses::.cpu.data            7                       # number of WriteLineReq accesses(hits+misses)
system.cpu.dcache.WriteLineReq_accesses::total            7                       # number of WriteLineReq accesses(hits+misses)
system.cpu.dcache.WriteLineReq_miss_rate::.cpu.data     0.714286                       # miss rate for WriteLineReq accesses
system.cpu.dcache.WriteLineReq_miss_rate::total     0.714286                       # miss rate for WriteLineReq accesses
system.cpu.dcache.WriteLineReq_avg_miss_latency::.cpu.data        25500                       # average WriteLineReq miss latency
system.cpu.dcache.WriteLineReq_avg_miss_latency::total        25500                       # average WriteLineReq miss latency
system.cpu.dcache.WriteLineReq_mshr_hits::.cpu.data            2                       # number of WriteLineReq MSHR hits
system.cpu.dcache.WriteLineReq_mshr_hits::total            2                       # number of WriteLineReq MSHR hits
system.cpu.dcache.WriteLineReq_mshr_misses::.cpu.data            3                       # number of WriteLineReq MSHR misses
system.cpu.dcache.WriteLineReq_mshr_misses::total            3                       # number of WriteLineReq MSHR misses
system.cpu.dcache.WriteLineReq_mshr_miss_latency::.cpu.data        54000                       # number of WriteLineReq MSHR miss cycles
system.cpu.dcache.WriteLineReq_mshr_miss_latency::total        54000                       # number of WriteLineReq MSHR miss cycles
system.cpu.dcache.WriteLineReq_mshr_miss_rate::.cpu.data     0.428571                       # mshr miss rate for WriteLineReq accesses
system.cpu.dcache.WriteLineReq_mshr_miss_rate::total     0.428571                       # mshr miss rate for WriteLineReq accesses
system.cpu.dcache.WriteLineReq_avg_mshr_miss_latency::.cpu.data        18000                       # average WriteLineReq mshr miss latency
system.cpu.dcache.WriteLineReq_avg_mshr_miss_latency::total        18000                       # average WriteLineReq mshr miss latency
system.cpu.dcache.LoadLockedReq_hits::.cpu.data            3                       # number of LoadLockedReq hits
system.cpu.dcache.LoadLockedReq_hits::total            3                       # number of LoadLockedReq hits
system.cpu.dcache.LoadLockedReq_misses::.cpu.data            1                       # number of LoadLockedReq misses
system.cpu.dcache.LoadLockedReq_misses::total            1                       # number of LoadLockedReq misses
system.cpu.dcache.LoadLockedReq_miss_latency::.cpu.data        94000                       # number of LoadLockedReq miss cycles
system.cpu.dcache.LoadLockedReq_miss_latency::total        94000                       # number of LoadLockedReq miss cycles
system.cpu.dcache.LoadLockedReq_accesses::.cpu.data            4                       # number of LoadLockedReq accesses(hits+misses)
system.cpu.dcache.LoadLockedReq_accesses::total            4                       # number of LoadLockedReq accesses(hits+misses)
system.cpu.dcache.LoadLockedReq_miss_rate::.cpu.data     0.250000                       # miss rate for LoadLockedReq accesses
system.cpu.dcache.LoadLockedReq_miss_rate::total     0.250000                       # miss rate for LoadLockedReq accesses
system.cpu.dcache.LoadLockedReq_avg_miss_latency::.cpu.data        94000                       # average LoadLockedReq miss latency
system.cpu.dcache.LoadLockedReq_avg_miss_latency::total        94000                       # average LoadLockedReq miss latency
system.cpu.dcache.LoadLockedReq_mshr_misses::.cpu.data            1                       # number of LoadLockedReq MSHR misses
system.cpu.dcache.LoadLockedReq_mshr_misses::total            1                       # number of LoadLockedReq MSHR misses
system.cpu.dcache.LoadLockedReq_mshr_miss_latency::.cpu.data        93000                       # number of LoadLockedReq MSHR miss cycles
system.cpu.dcache.LoadLockedReq_mshr_miss_latency::total        93000                       # number of LoadLockedReq MSHR miss cycles
system.cpu.dcache.LoadLockedReq_mshr_miss_rate::.cpu.data     0.250000                       # mshr miss rate for LoadLockedReq accesses
system.cpu.dcache.LoadLockedReq_mshr_miss_rate::total     0.250000                       # mshr miss rate for LoadLockedReq accesses
system.cpu.dcache.LoadLockedReq_avg_mshr_miss_latency::.cpu.data        93000                       # average LoadLockedReq mshr miss latency
system.cpu.dcache.LoadLockedReq_avg_mshr_miss_latency::total        93000                       # average LoadLockedReq mshr miss latency
system.cpu.dcache.StoreCondReq_hits::.cpu.data            4                       # number of StoreCondReq hits
system.cpu.dcache.StoreCondReq_hits::total            4                       # number of StoreCondReq hits
system.cpu.dcache.StoreCondReq_accesses::.cpu.data            4                       # number of StoreCondReq accesses(hits+misses)
system.cpu.dcache.StoreCondReq_accesses::total            4                       # number of StoreCondReq accesses(hits+misses)
system.cpu.dcache.SwapReq_hits::.cpu.data           24                       # number of SwapReq hits
system.cpu.dcache.SwapReq_hits::total              24                       # number of SwapReq hits
system.cpu.dcache.SwapReq_misses::.cpu.data            2                       # number of SwapReq misses
system.cpu.dcache.SwapReq_misses::total             2                       # number of SwapReq misses
system.cpu.dcache.SwapReq_miss_latency::.cpu.data        82500                       # number of SwapReq miss cycles
system.cpu.dcache.SwapReq_miss_latency::total        82500                       # number of SwapReq miss cycles
system.cpu.dcache.SwapReq_accesses::.cpu.data           26                       # number of SwapReq accesses(hits+misses)
system.cpu.dcache.SwapReq_accesses::total           26                       # number of SwapReq accesses(hits+misses)
system.cpu.dcache.SwapReq_miss_rate::.cpu.data     0.076923                       # miss rate for SwapReq accesses
system.cpu.dcache.SwapReq_miss_rate::total     0.076923                       # miss rate for SwapReq accesses
system.cpu.dcache.SwapReq_avg_miss_latency::.cpu.data        41250                       # average SwapReq miss latency
system.cpu.dcache.SwapReq_avg_miss_latency::total        41250                       # average SwapReq miss latency
system.cpu.dcache.SwapReq_mshr_hits::.cpu.data            1                       # number of SwapReq MSHR hits
system.cpu.dcache.SwapReq_mshr_hits::total            1                       # number of SwapReq MSHR hits
system.cpu.dcache.SwapReq_mshr_misses::.cpu.data            1                       # number of SwapReq MSHR misses
system.cpu.dcache.SwapReq_mshr_misses::total            1                       # number of SwapReq MSHR misses
system.cpu.dcache.SwapReq_mshr_miss_latency::.cpu.data        12000                       # number of SwapReq MSHR miss cycles
system.cpu.dcache.SwapReq_mshr_miss_latency::total        12000                       # number of SwapReq MSHR miss cycles
system.cpu.dcache.SwapReq_mshr_miss_rate::.cpu.data     0.038462                       # mshr miss rate for SwapReq accesses
system.cpu.dcache.SwapReq_mshr_miss_rate::total     0.038462                       # mshr miss rate for SwapReq accesses
system.cpu.dcache.SwapReq_avg_mshr_miss_latency::.cpu.data        12000                       # average SwapReq mshr miss latency
system.cpu.dcache.SwapReq_avg_mshr_miss_latency::total        12000                       # average SwapReq mshr miss latency
system.cpu.dcache.prefetcher.pwrStateResidencyTicks::UNDEFINED  59311524000                       # Cumulative time (in ticks) in various power states
system.cpu.dcache.tags.pwrStateResidencyTicks::UNDEFINED  59311524000                       # Cumulative time (in ticks) in various power states
system.cpu.dcache.tags.tagsinuse          2043.640477                       # Cycle average of tags in use
system.cpu.dcache.tags.total_refs            33580527                       # Total number of references to valid blocks.
system.cpu.dcache.tags.sampled_refs          16922646                       # Sample count of references to valid blocks.
system.cpu.dcache.tags.avg_refs              1.984354                       # Average number of references to valid blocks.
system.cpu.dcache.tags.warmup_cycle            188500                       # Cycle when the warmup percentage was hit.
system.cpu.dcache.tags.occ_blocks::.cpu.data  2021.633523                       # Average occupied blocks per requestor
system.cpu.dcache.tags.occ_blocks::.cpu.dcache.prefetcher    22.006954                       # Average occupied blocks per requestor
system.cpu.dcache.tags.occ_percent::.cpu.data     0.987126                       # Average percentage of cache occupancy
system.cpu.dcache.tags.occ_percent::.cpu.dcache.prefetcher     0.010746                       # Average percentage of cache occupancy
system.cpu.dcache.tags.occ_percent::total     0.997871                       # Average percentage of cache occupancy
system.cpu.dcache.tags.occ_task_id_blocks::1022           37                       # Occupied blocks per task id
system.cpu.dcache.tags.occ_task_id_blocks::1024         2011                       # Occupied blocks per task id
system.cpu.dcache.tags.age_task_id_blocks_1022::0           20                       # Occupied blocks per task id
system.cpu.dcache.tags.age_task_id_blocks_1022::1           11                       # Occupied blocks per task id
system.cpu.dcache.tags.age_task_id_blocks_1022::2            6                       # Occupied blocks per task id
system.cpu.dcache.tags.age_task_id_blocks_1024::0          257                       # Occupied blocks per task id
system.cpu.dcache.tags.age_task_id_blocks_1024::1          792                       # Occupied blocks per task id
system.cpu.dcache.tags.age_task_id_blocks_1024::2          962                       # Occupied blocks per task id
system.cpu.dcache.tags.occ_task_id_percent::1022     0.018066                       # Percentage of cache occupancy per task id
system.cpu.dcache.tags.occ_task_id_percent::1024     0.981934                       # Percentage of cache occupancy per task id
system.cpu.dcache.tags.tag_accesses          84299844                       # Number of tag accesses
system.cpu.dcache.tags.data_accesses         84299844                       # Number of data accesses

---------- End Simulation Statistics   ----------
