
---------- Begin Simulation Statistics ----------
final_tick                                58599409500                       # Number of ticks from beginning of simulation (restored from checkpoints and never reset)
host_inst_rate                                 382214                       # Simulator instruction rate (inst/s)
host_mem_usage                                8497368                       # Number of bytes of host memory used
host_op_rate                                   445422                       # Simulator op (including micro ops) rate (op/s)
host_seconds                                   265.45                       # Real time elapsed on the host
host_tick_rate                              220752663                       # Simulator tick rate (ticks/s)
sim_freq                                 1000000000000                       # Frequency of simulated ticks
sim_insts                                   101459739                       # Number of instructions simulated
sim_ops                                     118238466                       # Number of ops (including micro ops) simulated
sim_seconds                                  0.058599                       # Number of seconds simulated
sim_ticks                                 58599409500                       # Number of ticks simulated
system.cpu.branchPred.BTBCorrect                    0                       # Number of correct BTB predictions (this stat may not work properly.
system.cpu.branchPred.BTBHitPct             99.997229                       # BTB Hit Percentage
system.cpu.branchPred.BTBHits                17215750                       # Number of BTB hits
system.cpu.branchPred.BTBLookups             17216227                       # Number of BTB lookups
system.cpu.branchPred.RASInCorrect                  2                       # Number of incorrect RAS predictions.
system.cpu.branchPred.condIncorrect             66576                       # Number of conditional branches incorrect
system.cpu.branchPred.condPredicted          17283641                       # Number of conditional branches predicted
system.cpu.branchPred.indirectHits                  1                       # Number of indirect target hits.
system.cpu.branchPred.indirectLookups             114                       # Number of indirect predictor lookups.
system.cpu.branchPred.indirectMisses              113                       # Number of indirect misses.
system.cpu.branchPred.lookups                17284686                       # Number of BP lookups
system.cpu.branchPred.usedRAS                     341                       # Number of times the RAS was used to get a target.
system.cpu.branchPredindirectMispredicted           49                       # Number of mispredicted indirect branches.
system.cpu.cc_regfile_reads                  50728509                       # number of cc regfile reads
system.cpu.cc_regfile_writes                 50729244                       # number of cc regfile writes
system.cpu.commit.amos                             26                       # Number of atomic instructions committed
system.cpu.commit.branchMispredicts             66360                       # The number of times a branch was mispredicted
system.cpu.commit.branches                   16910249                       # Number of branches committed
system.cpu.commit.bw_lim_events                 68261                       # number cycles where commit BW limit reached
system.cpu.commit.commitNonSpecStalls              77                       # The number of times commit has been forced to stall to communicate backwards
system.cpu.commit.commitSquashedInsts          247971                       # The number of squashed insts skipped by commit
system.cpu.commit.committedInsts            101525543                       # Number of instructions committed
system.cpu.commit.committedOps              118304270                       # Number of ops (including micro ops) committed
system.cpu.commit.committed_per_cycle::samples    117091571                       # Number of insts commited each cycle
system.cpu.commit.committed_per_cycle::mean     1.010357                       # Number of insts commited each cycle
system.cpu.commit.committed_per_cycle::stdev     1.665209                       # Number of insts commited each cycle
system.cpu.commit.committed_per_cycle::underflows            0      0.00%      0.00% # Number of insts commited each cycle
system.cpu.commit.committed_per_cycle::0     84017005     71.75%     71.75% # Number of insts commited each cycle
system.cpu.commit.committed_per_cycle::1        10581      0.01%     71.76% # Number of insts commited each cycle
system.cpu.commit.committed_per_cycle::2       522658      0.45%     72.21% # Number of insts commited each cycle
system.cpu.commit.committed_per_cycle::3     15870164     13.55%     85.76% # Number of insts commited each cycle
system.cpu.commit.committed_per_cycle::4     15638478     13.36%     99.12% # Number of insts commited each cycle
system.cpu.commit.committed_per_cycle::5       105689      0.09%     99.21% # Number of insts commited each cycle
system.cpu.commit.committed_per_cycle::6         1709      0.00%     99.21% # Number of insts commited each cycle
system.cpu.commit.committed_per_cycle::7       857026      0.73%     99.94% # Number of insts commited each cycle
system.cpu.commit.committed_per_cycle::8        68261      0.06%    100.00% # Number of insts commited each cycle
system.cpu.commit.committed_per_cycle::overflows            0      0.00%    100.00% # Number of insts commited each cycle
system.cpu.commit.committed_per_cycle::min_value            0                       # Number of insts commited each cycle
system.cpu.commit.committed_per_cycle::max_value            8                       # Number of insts commited each cycle
system.cpu.commit.committed_per_cycle::total    117091571                       # Number of insts commited each cycle
system.cpu.commit.fp_insts                          0                       # Number of committed floating point instructions.
system.cpu.commit.function_calls                  183                       # Number of function calls committed.
system.cpu.commit.int_insts                  84551794                       # Number of committed integer instructions.
system.cpu.commit.loads                      33621209                       # Number of loads committed
system.cpu.commit.membars                          30                       # Number of memory barriers committed
system.cpu.commit.op_class_0::No_OpClass           33      0.00%      0.00% # Class of committed instruction
system.cpu.commit.op_class_0::IntAlu         67838704     57.34%     57.34% # Class of committed instruction
system.cpu.commit.op_class_0::IntMult               9      0.00%     57.34% # Class of committed instruction
system.cpu.commit.op_class_0::IntDiv                3      0.00%     57.34% # Class of committed instruction
system.cpu.commit.op_class_0::FloatAdd              0      0.00%     57.34% # Class of committed instruction
system.cpu.commit.op_class_0::FloatCmp              0      0.00%     57.34% # Class of committed instruction
system.cpu.commit.op_class_0::FloatCvt              1      0.00%     57.34% # Class of committed instruction
system.cpu.commit.op_class_0::FloatMult             0      0.00%     57.34% # Class of committed instruction
system.cpu.commit.op_class_0::FloatMultAcc     16777216     14.18%     71.52% # Class of committed instruction
system.cpu.commit.op_class_0::FloatDiv              1      0.00%     71.52% # Class of committed instruction
system.cpu.commit.op_class_0::FloatMisc             1      0.00%     71.52% # Class of committed instruction
system.cpu.commit.op_class_0::FloatSqrt             0      0.00%     71.52% # Class of committed instruction
system.cpu.commit.op_class_0::SimdAdd              13      0.00%     71.52% # Class of committed instruction
system.cpu.commit.op_class_0::SimdAddAcc            0      0.00%     71.52% # Class of committed instruction
system.cpu.commit.op_class_0::SimdAlu              12      0.00%     71.52% # Class of committed instruction
system.cpu.commit.op_class_0::SimdCmp              12      0.00%     71.52% # Class of committed instruction
system.cpu.commit.op_class_0::SimdCvt               0      0.00%     71.52% # Class of committed instruction
system.cpu.commit.op_class_0::SimdMisc             15      0.00%     71.52% # Class of committed instruction
system.cpu.commit.op_class_0::SimdMult              0      0.00%     71.52% # Class of committed instruction
system.cpu.commit.op_class_0::SimdMultAcc            0      0.00%     71.52% # Class of committed instruction
system.cpu.commit.op_class_0::SimdShift             0      0.00%     71.52% # Class of committed instruction
system.cpu.commit.op_class_0::SimdShiftAcc            0      0.00%     71.52% # Class of committed instruction
system.cpu.commit.op_class_0::SimdDiv               0      0.00%     71.52% # Class of committed instruction
system.cpu.commit.op_class_0::SimdSqrt              0      0.00%     71.52% # Class of committed instruction
system.cpu.commit.op_class_0::SimdFloatAdd            0      0.00%     71.52% # Class of committed instruction
system.cpu.commit.op_class_0::SimdFloatAlu            0      0.00%     71.52% # Class of committed instruction
system.cpu.commit.op_class_0::SimdFloatCmp            0      0.00%     71.52% # Class of committed instruction
system.cpu.commit.op_class_0::SimdFloatCvt            0      0.00%     71.52% # Class of committed instruction
system.cpu.commit.op_class_0::SimdFloatDiv            0      0.00%     71.52% # Class of committed instruction
system.cpu.commit.op_class_0::SimdFloatMisc            0      0.00%     71.52% # Class of committed instruction
system.cpu.commit.op_class_0::SimdFloatMult            0      0.00%     71.52% # Class of committed instruction
system.cpu.commit.op_class_0::SimdFloatMultAcc            0      0.00%     71.52% # Class of committed instruction
system.cpu.commit.op_class_0::SimdFloatSqrt            0      0.00%     71.52% # Class of committed instruction
system.cpu.commit.op_class_0::SimdReduceAdd            0      0.00%     71.52% # Class of committed instruction
system.cpu.commit.op_class_0::SimdReduceAlu            0      0.00%     71.52% # Class of committed instruction
system.cpu.commit.op_class_0::SimdReduceCmp            0      0.00%     71.52% # Class of committed instruction
system.cpu.commit.op_class_0::SimdFloatReduceAdd            0      0.00%     71.52% # Class of committed instruction
system.cpu.commit.op_class_0::SimdFloatReduceCmp            0      0.00%     71.52% # Class of committed instruction
system.cpu.commit.op_class_0::SimdAes               0      0.00%     71.52% # Class of committed instruction
system.cpu.commit.op_class_0::SimdAesMix            0      0.00%     71.52% # Class of committed instruction
system.cpu.commit.op_class_0::SimdSha1Hash            0      0.00%     71.52% # Class of committed instruction
system.cpu.commit.op_class_0::SimdSha1Hash2            0      0.00%     71.52% # Class of committed instruction
system.cpu.commit.op_class_0::SimdSha256Hash            0      0.00%     71.52% # Class of committed instruction
system.cpu.commit.op_class_0::SimdSha256Hash2            0      0.00%     71.52% # Class of committed instruction
system.cpu.commit.op_class_0::SimdShaSigma2            0      0.00%     71.52% # Class of committed instruction
system.cpu.commit.op_class_0::SimdShaSigma3            0      0.00%     71.52% # Class of committed instruction
system.cpu.commit.op_class_0::SimdPredAlu            0      0.00%     71.52% # Class of committed instruction
system.cpu.commit.op_class_0::MemRead        33621209     28.42%     99.94% # Class of committed instruction
system.cpu.commit.op_class_0::MemWrite          67041      0.06%    100.00% # Class of committed instruction
system.cpu.commit.op_class_0::FloatMemRead            0      0.00%    100.00% # Class of committed instruction
system.cpu.commit.op_class_0::FloatMemWrite            0      0.00%    100.00% # Class of committed instruction
system.cpu.commit.op_class_0::IprAccess             0      0.00%    100.00% # Class of committed instruction
system.cpu.commit.op_class_0::InstPrefetch            0      0.00%    100.00% # Class of committed instruction
system.cpu.commit.op_class_0::total         118304270                       # Class of committed instruction
system.cpu.commit.refs                       33688250                       # Number of memory references committed
system.cpu.commit.swp_count                         0                       # Number of s/w prefetches committed
system.cpu.commit.vec_insts                  50462872                       # Number of committed Vector instructions.
system.cpu.committedInsts                   101459739                       # Number of Instructions Simulated
system.cpu.committedOps                     118238466                       # Number of Ops (including micro ops) Simulated
system.cpu.cpi                               1.155126                       # CPI: Cycles Per Instruction
system.cpu.cpi_total                         1.155126                       # CPI: Total CPI of All Threads
system.cpu.dcache.prefetcher.num_hwpf_issued       174990                       # number of hwpf issued
system.cpu.dcache.prefetcher.pfBufferHit     10685166                       # number of redundant prefetches already in prefetch queue
system.cpu.dcache.prefetcher.pfIdentified     22704054                       # number of prefetch candidates identified
system.cpu.dcache.prefetcher.pfInCache              0                       # number of redundant prefetches already in cache/mshr dropped
system.cpu.dcache.prefetcher.pfRemovedFull         1161                       # number of prefetches dropped due to prefetch queue size
system.cpu.dcache.prefetcher.pfSpanPage      39232918                       # number of prefetches that crossed the page
system.cpu.decode.BlockedCycles              63138098                       # Number of cycles decode is blocked
system.cpu.decode.BranchMispred                   227                       # Number of times decode detected a branch misprediction
system.cpu.decode.BranchResolved             16909088                       # Number of times decode resolved a branch
system.cpu.decode.DecodedInsts              119022668                       # Number of instructions handled by decode
system.cpu.decode.IdleCycles                 13559209                       # Number of cycles decode is idle
system.cpu.decode.RunCycles                  24668118                       # Number of cycles decode is running
system.cpu.decode.SquashCycles                  66379                       # Number of cycles decode is squashing
system.cpu.decode.SquashedInsts                208500                       # Number of squashed instructions handled by decode
system.cpu.decode.UnblockCycles              15726311                       # Number of cycles decode is unblocking
system.cpu.dtb.accesses                             0                       # DTB accesses
system.cpu.dtb.align_faults                         0                       # Number of TLB faults due to alignment restrictions
system.cpu.dtb.domain_faults                        0                       # Number of TLB faults due to domain restrictions
system.cpu.dtb.flush_entries                        0                       # Number of entries that have been flushed from TLB
system.cpu.dtb.flush_tlb                            0                       # Number of times complete TLB was flushed
system.cpu.dtb.flush_tlb_asid                       0                       # Number of times TLB was flushed by ASID
system.cpu.dtb.flush_tlb_mva                        0                       # Number of times TLB was flushed by MVA
system.cpu.dtb.flush_tlb_mva_asid                   0                       # Number of times TLB was flushed by MVA & ASID
system.cpu.dtb.hits                                 0                       # DTB hits
system.cpu.dtb.inst_accesses                        0                       # ITB inst accesses
system.cpu.dtb.inst_hits                            0                       # ITB inst hits
system.cpu.dtb.inst_misses                          0                       # ITB inst misses
system.cpu.dtb.misses                               0                       # DTB misses
system.cpu.dtb.perms_faults                         0                       # Number of TLB faults due to permissions restrictions
system.cpu.dtb.prefetch_faults                      0                       # Number of TLB faults due to prefetch
system.cpu.dtb.read_accesses                        0                       # DTB read accesses
system.cpu.dtb.read_hits                            0                       # DTB read hits
system.cpu.dtb.read_misses                          0                       # DTB read misses
system.cpu.dtb.stage2_mmu.stage2_tlb.accesses            0                       # DTB accesses
system.cpu.dtb.stage2_mmu.stage2_tlb.align_faults            0                       # Number of TLB faults due to alignment restrictions
system.cpu.dtb.stage2_mmu.stage2_tlb.domain_faults            0                       # Number of TLB faults due to domain restrictions
system.cpu.dtb.stage2_mmu.stage2_tlb.flush_entries            0                       # Number of entries that have been flushed from TLB
system.cpu.dtb.stage2_mmu.stage2_tlb.flush_tlb            0                       # Number of times complete TLB was flushed
system.cpu.dtb.stage2_mmu.stage2_tlb.flush_tlb_asid            0                       # Number of times TLB was flushed by ASID
system.cpu.dtb.stage2_mmu.stage2_tlb.flush_tlb_mva            0                       # Number of times TLB was flushed by MVA
system.cpu.dtb.stage2_mmu.stage2_tlb.flush_tlb_mva_asid            0                       # Number of times TLB was flushed by MVA & ASID
system.cpu.dtb.stage2_mmu.stage2_tlb.hits            0                       # DTB hits
system.cpu.dtb.stage2_mmu.stage2_tlb.inst_accesses            0                       # ITB inst accesses
system.cpu.dtb.stage2_mmu.stage2_tlb.inst_hits            0                       # ITB inst hits
system.cpu.dtb.stage2_mmu.stage2_tlb.inst_misses            0                       # ITB inst misses
system.cpu.dtb.stage2_mmu.stage2_tlb.misses            0                       # DTB misses
system.cpu.dtb.stage2_mmu.stage2_tlb.perms_faults            0                       # Number of TLB faults due to permissions restrictions
system.cpu.dtb.stage2_mmu.stage2_tlb.prefetch_faults            0                       # Number of TLB faults due to prefetch
system.cpu.dtb.stage2_mmu.stage2_tlb.read_accesses            0                       # DTB read accesses
system.cpu.dtb.stage2_mmu.stage2_tlb.read_hits            0                       # DTB read hits
system.cpu.dtb.stage2_mmu.stage2_tlb.read_misses            0                       # DTB read misses
system.cpu.dtb.stage2_mmu.stage2_tlb.walker.walkRequestOrigin_Requested::Data            0                       # Table walker requests started/completed, data/inst
system.cpu.dtb.stage2_mmu.stage2_tlb.walker.walkRequestOrigin_Requested::Inst            0                       # Table walker requests started/completed, data/inst
system.cpu.dtb.stage2_mmu.stage2_tlb.walker.walkRequestOrigin_Requested::total            0                       # Table walker requests started/completed, data/inst
system.cpu.dtb.stage2_mmu.stage2_tlb.walker.walkRequestOrigin_Completed::Data            0                       # Table walker requests started/completed, data/inst
system.cpu.dtb.stage2_mmu.stage2_tlb.walker.walkRequestOrigin_Completed::Inst            0                       # Table walker requests started/completed, data/inst
system.cpu.dtb.stage2_mmu.stage2_tlb.walker.walkRequestOrigin_Completed::total            0                       # Table walker requests started/completed, data/inst
system.cpu.dtb.stage2_mmu.stage2_tlb.walker.walkRequestOrigin::total            0                       # Table walker requests started/completed, data/inst
system.cpu.dtb.stage2_mmu.stage2_tlb.walker.walks            0                       # Table walker walks requested
system.cpu.dtb.stage2_mmu.stage2_tlb.write_accesses            0                       # DTB write accesses
system.cpu.dtb.stage2_mmu.stage2_tlb.write_hits            0                       # DTB write hits
system.cpu.dtb.stage2_mmu.stage2_tlb.write_misses            0                       # DTB write misses
system.cpu.dtb.walker.walkRequestOrigin_Requested::Data            0                       # Table walker requests started/completed, data/inst
system.cpu.dtb.walker.walkRequestOrigin_Requested::Inst            0                       # Table walker requests started/completed, data/inst
system.cpu.dtb.walker.walkRequestOrigin_Requested::total            0                       # Table walker requests started/completed, data/inst
system.cpu.dtb.walker.walkRequestOrigin_Completed::Data            0                       # Table walker requests started/completed, data/inst
system.cpu.dtb.walker.walkRequestOrigin_Completed::Inst            0                       # Table walker requests started/completed, data/inst
system.cpu.dtb.walker.walkRequestOrigin_Completed::total            0                       # Table walker requests started/completed, data/inst
system.cpu.dtb.walker.walkRequestOrigin::total            0                       # Table walker requests started/completed, data/inst
system.cpu.dtb.walker.walks                         0                       # Table walker walks requested
system.cpu.dtb.write_accesses                       0                       # DTB write accesses
system.cpu.dtb.write_hits                           0                       # DTB write hits
system.cpu.dtb.write_misses                         0                       # DTB write misses
system.cpu.fetch.Branches                    17284686                       # Number of branches that fetch encountered
system.cpu.fetch.CacheLines                  34639786                       # Number of cache lines fetched
system.cpu.fetch.Cycles                      82421974                       # Number of cycles fetch has run and was not squashing or blocked
system.cpu.fetch.IcacheSquashes                 23393                       # Number of outstanding Icache misses that were squashed
system.cpu.fetch.Insts                      103936543                       # Number of instructions fetch has processed
system.cpu.fetch.SquashCycles                  133190                       # Number of cycles fetch has spent squashing
system.cpu.fetch.branchRate                  0.147482                       # Number of branch fetches per cycle
system.cpu.fetch.icacheStallCycles           34669546                       # Number of cycles fetch is stalled on an Icache miss
system.cpu.fetch.predictedBranches           17216092                       # Number of branches that fetch has predicted taken
system.cpu.fetch.rate                        0.886840                       # Number of inst fetches per cycle
system.cpu.fetch.rateDist::samples          117158115                       # Number of instructions fetched each cycle (Total)
system.cpu.fetch.rateDist::mean              1.033917                       # Number of instructions fetched each cycle (Total)
system.cpu.fetch.rateDist::stdev             1.176650                       # Number of instructions fetched each cycle (Total)
system.cpu.fetch.rateDist::underflows               0      0.00%      0.00% # Number of instructions fetched each cycle (Total)
system.cpu.fetch.rateDist::0                 61788609     52.74%     52.74% # Number of instructions fetched each cycle (Total)
system.cpu.fetch.rateDist::1                  7002282      5.98%     58.72% # Number of instructions fetched each cycle (Total)
system.cpu.fetch.rateDist::2                 30972243     26.44%     85.15% # Number of instructions fetched each cycle (Total)
system.cpu.fetch.rateDist::3                 17394981     14.85%    100.00% # Number of instructions fetched each cycle (Total)
system.cpu.fetch.rateDist::overflows                0      0.00%    100.00% # Number of instructions fetched each cycle (Total)
system.cpu.fetch.rateDist::min_value                0                       # Number of instructions fetched each cycle (Total)
system.cpu.fetch.rateDist::max_value                3                       # Number of instructions fetched each cycle (Total)
system.cpu.fetch.rateDist::total            117158115                       # Number of instructions fetched each cycle (Total)
system.cpu.idleCycles                           40705                       # Total number of cycles that the CPU has spent unscheduled due to idling
system.cpu.iew.branchMispredicts                66393                       # Number of branch mispredicts detected at execute
system.cpu.iew.exec_branches                 16910601                       # Number of branches executed
system.cpu.iew.exec_nop                         65871                       # number of nop insts executed
system.cpu.iew.exec_rate                     1.363053                       # Inst execution rate
system.cpu.iew.exec_refs                     75106900                       # number of memory reference insts executed
system.cpu.iew.exec_stores                      67144                       # Number of stores executed
system.cpu.iew.exec_swp                             0                       # number of swp insts executed
system.cpu.iew.iewBlockCycles                     208                       # Number of cycles IEW is blocking
system.cpu.iew.iewDispLoadInsts              33722586                       # Number of dispatched load instructions
system.cpu.iew.iewDispNonSpecInsts                 90                       # Number of dispatched non-speculative instructions
system.cpu.iew.iewDispSquashedInsts                 0                       # Number of squashed instructions skipped by dispatch
system.cpu.iew.iewDispStoreInsts                67390                       # Number of dispatched store instructions
system.cpu.iew.iewDispatchedInsts           118555421                       # Number of instructions dispatched to IQ
system.cpu.iew.iewExecLoadInsts              75039756                       # Number of load instructions executed
system.cpu.iew.iewExecSquashedInsts             48308                       # Number of squashed instructions skipped in execute
system.cpu.iew.iewExecutedInsts             159748189                       # Number of executed instructions
system.cpu.iew.iewIQFullEvents                      0                       # Number of times the IQ has become full, causing a stall
system.cpu.iew.iewIdleCycles                        0                       # Number of cycles IEW is idle
system.cpu.iew.iewLSQFullEvents              14430253                       # Number of times the LSQ has become full, causing a stall
system.cpu.iew.iewSquashCycles                  66379                       # Number of cycles IEW is squashing
system.cpu.iew.iewUnblockCycles              14418557                       # Number of cycles IEW is unblocking
system.cpu.iew.lsq.thread0.blockedLoads             0                       # Number of blocked loads due to partial load-store forwarding
system.cpu.iew.lsq.thread0.cacheBlocked       4684225                       # Number of times an access to memory failed due to the cache being blocked
system.cpu.iew.lsq.thread0.forwLoads                6                       # Number of loads that had data forwarded from stores
system.cpu.iew.lsq.thread0.ignoredResponses            0                       # Number of memory responses ignored because the instruction is squashed
system.cpu.iew.lsq.thread0.invAddrLoads             0                       # Number of loads ignored due to an invalid address
system.cpu.iew.lsq.thread0.invAddrSwpfs             0                       # Number of software prefetches ignored due to an invalid address
system.cpu.iew.lsq.thread0.memOrderViolation            2                       # Number of memory ordering violations
system.cpu.iew.lsq.thread0.rescheduledLoads            6                       # Number of loads that were rescheduled
system.cpu.iew.lsq.thread0.squashedLoads       101377                       # Number of loads squashed
system.cpu.iew.lsq.thread0.squashedStores          349                       # Number of stores squashed
system.cpu.iew.memOrderViolationEvents              2                       # Number of memory order violations
system.cpu.iew.predictedNotTakenIncorrect          595                       # Number of branches that were predicted not taken incorrectly
system.cpu.iew.predictedTakenIncorrect          65798                       # Number of branches that were predicted taken incorrectly
system.cpu.iew.wb_consumers                 110361681                       # num instructions consuming a value
system.cpu.iew.wb_count                     118329701                       # cumulative count of insts written-back
system.cpu.iew.wb_fanout                     0.711739                       # average fanout of values written-back
system.cpu.iew.wb_producers                  78548719                       # num instructions producing a value
system.cpu.iew.wb_rate                       1.009649                       # insts written-back per cycle
system.cpu.iew.wb_sent                      118329813                       # cumulative count of insts sent to commit
system.cpu.int_regfile_reads                160093901                       # number of integer regfile reads
system.cpu.int_regfile_writes                50955290                       # number of integer regfile writes
system.cpu.ipc                               0.865706                       # IPC: Instructions Per Cycle
system.cpu.ipc_total                         0.865706                       # IPC: Total IPC of All Threads
system.cpu.iq.FU_type_0::No_OpClass                33      0.00%      0.00% # Type of FU issued
system.cpu.iq.FU_type_0::IntAlu              67888969     42.48%     42.48% # Type of FU issued
system.cpu.iq.FU_type_0::IntMult                    9      0.00%     42.48% # Type of FU issued
system.cpu.iq.FU_type_0::IntDiv                     3      0.00%     42.48% # Type of FU issued
system.cpu.iq.FU_type_0::FloatAdd                   0      0.00%     42.48% # Type of FU issued
system.cpu.iq.FU_type_0::FloatCmp                   0      0.00%     42.48% # Type of FU issued
system.cpu.iq.FU_type_0::FloatCvt                   2      0.00%     42.48% # Type of FU issued
system.cpu.iq.FU_type_0::FloatMult                  0      0.00%     42.48% # Type of FU issued
system.cpu.iq.FU_type_0::FloatMultAcc        16777216     10.50%     52.98% # Type of FU issued
system.cpu.iq.FU_type_0::FloatDiv                   2      0.00%     52.98% # Type of FU issued
system.cpu.iq.FU_type_0::FloatMisc                  2      0.00%     52.98% # Type of FU issued
system.cpu.iq.FU_type_0::FloatSqrt                  0      0.00%     52.98% # Type of FU issued
system.cpu.iq.FU_type_0::SimdAdd                   13      0.00%     52.98% # Type of FU issued
system.cpu.iq.FU_type_0::SimdAddAcc                 0      0.00%     52.98% # Type of FU issued
system.cpu.iq.FU_type_0::SimdAlu                   12      0.00%     52.98% # Type of FU issued
system.cpu.iq.FU_type_0::SimdCmp                   12      0.00%     52.98% # Type of FU issued
system.cpu.iq.FU_type_0::SimdCvt                    0      0.00%     52.98% # Type of FU issued
system.cpu.iq.FU_type_0::SimdMisc                  19      0.00%     52.98% # Type of FU issued
system.cpu.iq.FU_type_0::SimdMult                   0      0.00%     52.98% # Type of FU issued
system.cpu.iq.FU_type_0::SimdMultAcc                0      0.00%     52.98% # Type of FU issued
system.cpu.iq.FU_type_0::SimdShift                  0      0.00%     52.98% # Type of FU issued
system.cpu.iq.FU_type_0::SimdShiftAcc               0      0.00%     52.98% # Type of FU issued
system.cpu.iq.FU_type_0::SimdDiv                    0      0.00%     52.98% # Type of FU issued
system.cpu.iq.FU_type_0::SimdSqrt                   0      0.00%     52.98% # Type of FU issued
system.cpu.iq.FU_type_0::SimdFloatAdd               0      0.00%     52.98% # Type of FU issued
system.cpu.iq.FU_type_0::SimdFloatAlu               0      0.00%     52.98% # Type of FU issued
system.cpu.iq.FU_type_0::SimdFloatCmp               0      0.00%     52.98% # Type of FU issued
system.cpu.iq.FU_type_0::SimdFloatCvt               0      0.00%     52.98% # Type of FU issued
system.cpu.iq.FU_type_0::SimdFloatDiv               0      0.00%     52.98% # Type of FU issued
system.cpu.iq.FU_type_0::SimdFloatMisc              0      0.00%     52.98% # Type of FU issued
system.cpu.iq.FU_type_0::SimdFloatMult              0      0.00%     52.98% # Type of FU issued
system.cpu.iq.FU_type_0::SimdFloatMultAcc            0      0.00%     52.98% # Type of FU issued
system.cpu.iq.FU_type_0::SimdFloatSqrt              0      0.00%     52.98% # Type of FU issued
system.cpu.iq.FU_type_0::SimdReduceAdd              0      0.00%     52.98% # Type of FU issued
system.cpu.iq.FU_type_0::SimdReduceAlu              0      0.00%     52.98% # Type of FU issued
system.cpu.iq.FU_type_0::SimdReduceCmp              0      0.00%     52.98% # Type of FU issued
system.cpu.iq.FU_type_0::SimdFloatReduceAdd            0      0.00%     52.98% # Type of FU issued
system.cpu.iq.FU_type_0::SimdFloatReduceCmp            0      0.00%     52.98% # Type of FU issued
system.cpu.iq.FU_type_0::SimdAes                    0      0.00%     52.98% # Type of FU issued
system.cpu.iq.FU_type_0::SimdAesMix                 0      0.00%     52.98% # Type of FU issued
system.cpu.iq.FU_type_0::SimdSha1Hash               0      0.00%     52.98% # Type of FU issued
system.cpu.iq.FU_type_0::SimdSha1Hash2              0      0.00%     52.98% # Type of FU issued
system.cpu.iq.FU_type_0::SimdSha256Hash             0      0.00%     52.98% # Type of FU issued
system.cpu.iq.FU_type_0::SimdSha256Hash2            0      0.00%     52.98% # Type of FU issued
system.cpu.iq.FU_type_0::SimdShaSigma2              0      0.00%     52.98% # Type of FU issued
system.cpu.iq.FU_type_0::SimdShaSigma3              0      0.00%     52.98% # Type of FU issued
system.cpu.iq.FU_type_0::SimdPredAlu                0      0.00%     52.98% # Type of FU issued
system.cpu.iq.FU_type_0::MemRead             75062992     46.97%     99.96% # Type of FU issued
system.cpu.iq.FU_type_0::MemWrite               67213      0.04%    100.00% # Type of FU issued
system.cpu.iq.FU_type_0::FloatMemRead               0      0.00%    100.00% # Type of FU issued
system.cpu.iq.FU_type_0::FloatMemWrite              0      0.00%    100.00% # Type of FU issued
system.cpu.iq.FU_type_0::IprAccess                  0      0.00%    100.00% # Type of FU issued
system.cpu.iq.FU_type_0::InstPrefetch               0      0.00%    100.00% # Type of FU issued
system.cpu.iq.FU_type_0::total              159796497                       # Type of FU issued
system.cpu.iq.fp_alu_accesses                       0                       # Number of floating point alu accesses
system.cpu.iq.fp_inst_queue_reads                   0                       # Number of floating instruction queue reads
system.cpu.iq.fp_inst_queue_wakeup_accesses            0                       # Number of floating instruction queue wakeup accesses
system.cpu.iq.fp_inst_queue_writes                  0                       # Number of floating instruction queue writes
system.cpu.iq.fu_busy_cnt                    57868105                       # FU busy when requested
system.cpu.iq.fu_busy_rate                   0.362136                       # FU busy rate (busy events/executed inst)
system.cpu.iq.fu_full::No_OpClass                   0      0.00%      0.00% # attempts to use FU when none available
system.cpu.iq.fu_full::IntAlu                 2843198      4.91%      4.91% # attempts to use FU when none available
system.cpu.iq.fu_full::IntMult                      0      0.00%      4.91% # attempts to use FU when none available
system.cpu.iq.fu_full::IntDiv                       0      0.00%      4.91% # attempts to use FU when none available
system.cpu.iq.fu_full::FloatAdd                     0      0.00%      4.91% # attempts to use FU when none available
system.cpu.iq.fu_full::FloatCmp                     0      0.00%      4.91% # attempts to use FU when none available
system.cpu.iq.fu_full::FloatCvt                     0      0.00%      4.91% # attempts to use FU when none available
system.cpu.iq.fu_full::FloatMult                    0      0.00%      4.91% # attempts to use FU when none available
system.cpu.iq.fu_full::FloatMultAcc                 0      0.00%      4.91% # attempts to use FU when none available
system.cpu.iq.fu_full::FloatDiv                     0      0.00%      4.91% # attempts to use FU when none available
system.cpu.iq.fu_full::FloatMisc                    0      0.00%      4.91% # attempts to use FU when none available
system.cpu.iq.fu_full::FloatSqrt                    0      0.00%      4.91% # attempts to use FU when none available
system.cpu.iq.fu_full::SimdAdd                      0      0.00%      4.91% # attempts to use FU when none available
system.cpu.iq.fu_full::SimdAddAcc                   0      0.00%      4.91% # attempts to use FU when none available
system.cpu.iq.fu_full::SimdAlu                      1      0.00%      4.91% # attempts to use FU when none available
system.cpu.iq.fu_full::SimdCmp                      3      0.00%      4.91% # attempts to use FU when none available
system.cpu.iq.fu_full::SimdCvt                      0      0.00%      4.91% # attempts to use FU when none available
system.cpu.iq.fu_full::SimdMisc                     0      0.00%      4.91% # attempts to use FU when none available
system.cpu.iq.fu_full::SimdMult                     0      0.00%      4.91% # attempts to use FU when none available
system.cpu.iq.fu_full::SimdMultAcc                  0      0.00%      4.91% # attempts to use FU when none available
system.cpu.iq.fu_full::SimdShift                    0      0.00%      4.91% # attempts to use FU when none available
system.cpu.iq.fu_full::SimdShiftAcc                 0      0.00%      4.91% # attempts to use FU when none available
system.cpu.iq.fu_full::SimdDiv                      0      0.00%      4.91% # attempts to use FU when none available
system.cpu.iq.fu_full::SimdSqrt                     0      0.00%      4.91% # attempts to use FU when none available
system.cpu.iq.fu_full::SimdFloatAdd                 0      0.00%      4.91% # attempts to use FU when none available
system.cpu.iq.fu_full::SimdFloatAlu                 0      0.00%      4.91% # attempts to use FU when none available
system.cpu.iq.fu_full::SimdFloatCmp                 0      0.00%      4.91% # attempts to use FU when none available
system.cpu.iq.fu_full::SimdFloatCvt                 0      0.00%      4.91% # attempts to use FU when none available
system.cpu.iq.fu_full::SimdFloatDiv                 0      0.00%      4.91% # attempts to use FU when none available
system.cpu.iq.fu_full::SimdFloatMisc                0      0.00%      4.91% # attempts to use FU when none available
system.cpu.iq.fu_full::SimdFloatMult                0      0.00%      4.91% # attempts to use FU when none available
system.cpu.iq.fu_full::SimdFloatMultAcc             0      0.00%      4.91% # attempts to use FU when none available
system.cpu.iq.fu_full::SimdFloatSqrt                0      0.00%      4.91% # attempts to use FU when none available
system.cpu.iq.fu_full::SimdReduceAdd                0      0.00%      4.91% # attempts to use FU when none available
system.cpu.iq.fu_full::SimdReduceAlu                0      0.00%      4.91% # attempts to use FU when none available
system.cpu.iq.fu_full::SimdReduceCmp                0      0.00%      4.91% # attempts to use FU when none available
system.cpu.iq.fu_full::SimdFloatReduceAdd            0      0.00%      4.91% # attempts to use FU when none available
system.cpu.iq.fu_full::SimdFloatReduceCmp            0      0.00%      4.91% # attempts to use FU when none available
system.cpu.iq.fu_full::SimdAes                      0      0.00%      4.91% # attempts to use FU when none available
system.cpu.iq.fu_full::SimdAesMix                   0      0.00%      4.91% # attempts to use FU when none available
system.cpu.iq.fu_full::SimdSha1Hash                 0      0.00%      4.91% # attempts to use FU when none available
system.cpu.iq.fu_full::SimdSha1Hash2                0      0.00%      4.91% # attempts to use FU when none available
system.cpu.iq.fu_full::SimdSha256Hash               0      0.00%      4.91% # attempts to use FU when none available
system.cpu.iq.fu_full::SimdSha256Hash2              0      0.00%      4.91% # attempts to use FU when none available
system.cpu.iq.fu_full::SimdShaSigma2                0      0.00%      4.91% # attempts to use FU when none available
system.cpu.iq.fu_full::SimdShaSigma3                0      0.00%      4.91% # attempts to use FU when none available
system.cpu.iq.fu_full::SimdPredAlu                  0      0.00%      4.91% # attempts to use FU when none available
system.cpu.iq.fu_full::MemRead               55024181     95.09%    100.00% # attempts to use FU when none available
system.cpu.iq.fu_full::MemWrite                   722      0.00%    100.00% # attempts to use FU when none available
system.cpu.iq.fu_full::FloatMemRead                 0      0.00%    100.00% # attempts to use FU when none available
system.cpu.iq.fu_full::FloatMemWrite                0      0.00%    100.00% # attempts to use FU when none available
system.cpu.iq.fu_full::IprAccess                    0      0.00%    100.00% # attempts to use FU when none available
system.cpu.iq.fu_full::InstPrefetch                 0      0.00%    100.00% # attempts to use FU when none available
system.cpu.iq.int_alu_accesses               70736491                       # Number of integer alu accesses
system.cpu.iq.int_inst_queue_reads          255787158                       # Number of integer instruction queue reads
system.cpu.iq.int_inst_queue_wakeup_accesses     67866823                       # Number of integer instruction queue wakeup accesses
system.cpu.iq.int_inst_queue_writes          68041243                       # Number of integer instruction queue writes
system.cpu.iq.iqInstsAdded                  118489460                       # Number of instructions added to the IQ (excludes non-spec)
system.cpu.iq.iqInstsIssued                 159796497                       # Number of instructions issued
system.cpu.iq.iqNonSpecInstsAdded                  90                       # Number of non-speculative instructions added to the IQ
system.cpu.iq.iqSquashedInstsExamined          251083                       # Number of squashed instructions iterated over during squash; mainly for profiling
system.cpu.iq.iqSquashedInstsIssued             77729                       # Number of squashed instructions issued
system.cpu.iq.iqSquashedNonSpecRemoved             13                       # Number of squashed non-spec instructions that were removed
system.cpu.iq.iqSquashedOperandsExamined       454747                       # Number of squashed operands that are examined and possibly removed from graph
system.cpu.iq.issued_per_cycle::samples     117158115                       # Number of insts issued each cycle
system.cpu.iq.issued_per_cycle::mean         1.363939                       # Number of insts issued each cycle
system.cpu.iq.issued_per_cycle::stdev        1.053723                       # Number of insts issued each cycle
system.cpu.iq.issued_per_cycle::underflows            0      0.00%      0.00% # Number of insts issued each cycle
system.cpu.iq.issued_per_cycle::0            31313711     26.73%     26.73% # Number of insts issued each cycle
system.cpu.iq.issued_per_cycle::1            31803303     27.15%     53.87% # Number of insts issued each cycle
system.cpu.iq.issued_per_cycle::2            34387283     29.35%     83.22% # Number of insts issued each cycle
system.cpu.iq.issued_per_cycle::3            19396644     16.56%     99.78% # Number of insts issued each cycle
system.cpu.iq.issued_per_cycle::4              257174      0.22%    100.00% # Number of insts issued each cycle
system.cpu.iq.issued_per_cycle::5                   0      0.00%    100.00% # Number of insts issued each cycle
system.cpu.iq.issued_per_cycle::6                   0      0.00%    100.00% # Number of insts issued each cycle
system.cpu.iq.issued_per_cycle::7                   0      0.00%    100.00% # Number of insts issued each cycle
system.cpu.iq.issued_per_cycle::8                   0      0.00%    100.00% # Number of insts issued each cycle
system.cpu.iq.issued_per_cycle::overflows            0      0.00%    100.00% # Number of insts issued each cycle
system.cpu.iq.issued_per_cycle::min_value            0                       # Number of insts issued each cycle
system.cpu.iq.issued_per_cycle::max_value            4                       # Number of insts issued each cycle
system.cpu.iq.issued_per_cycle::total       117158115                       # Number of insts issued each cycle
system.cpu.iq.rate                           1.363465                       # Inst issue rate
system.cpu.iq.vec_alu_accesses              146928078                       # Number of vector alu accesses
system.cpu.iq.vec_inst_queue_reads          238909785                       # Number of vector instruction queue reads
system.cpu.iq.vec_inst_queue_wakeup_accesses     50462878                       # Number of vector instruction queue wakeup accesses
system.cpu.iq.vec_inst_queue_writes          50699392                       # Number of vector instruction queue writes
system.cpu.itb.accesses                             0                       # DTB accesses
system.cpu.itb.align_faults                         0                       # Number of TLB faults due to alignment restrictions
system.cpu.itb.domain_faults                        0                       # Number of TLB faults due to domain restrictions
system.cpu.itb.flush_entries                        0                       # Number of entries that have been flushed from TLB
system.cpu.itb.flush_tlb                            0                       # Number of times complete TLB was flushed
system.cpu.itb.flush_tlb_asid                       0                       # Number of times TLB was flushed by ASID
system.cpu.itb.flush_tlb_mva                        0                       # Number of times TLB was flushed by MVA
system.cpu.itb.flush_tlb_mva_asid                   0                       # Number of times TLB was flushed by MVA & ASID
system.cpu.itb.hits                                 0                       # DTB hits
system.cpu.itb.inst_accesses                        0                       # ITB inst accesses
system.cpu.itb.inst_hits                            0                       # ITB inst hits
system.cpu.itb.inst_misses                          0                       # ITB inst misses
system.cpu.itb.misses                               0                       # DTB misses
system.cpu.itb.perms_faults                         0                       # Number of TLB faults due to permissions restrictions
system.cpu.itb.prefetch_faults                      0                       # Number of TLB faults due to prefetch
system.cpu.itb.read_accesses                        0                       # DTB read accesses
system.cpu.itb.read_hits                            0                       # DTB read hits
system.cpu.itb.read_misses                          0                       # DTB read misses
system.cpu.itb.stage2_mmu.stage2_tlb.accesses            0                       # DTB accesses
system.cpu.itb.stage2_mmu.stage2_tlb.align_faults            0                       # Number of TLB faults due to alignment restrictions
system.cpu.itb.stage2_mmu.stage2_tlb.domain_faults            0                       # Number of TLB faults due to domain restrictions
system.cpu.itb.stage2_mmu.stage2_tlb.flush_entries            0                       # Number of entries that have been flushed from TLB
system.cpu.itb.stage2_mmu.stage2_tlb.flush_tlb            0                       # Number of times complete TLB was flushed
system.cpu.itb.stage2_mmu.stage2_tlb.flush_tlb_asid            0                       # Number of times TLB was flushed by ASID
system.cpu.itb.stage2_mmu.stage2_tlb.flush_tlb_mva            0                       # Number of times TLB was flushed by MVA
system.cpu.itb.stage2_mmu.stage2_tlb.flush_tlb_mva_asid            0                       # Number of times TLB was flushed by MVA & ASID
system.cpu.itb.stage2_mmu.stage2_tlb.hits            0                       # DTB hits
system.cpu.itb.stage2_mmu.stage2_tlb.inst_accesses            0                       # ITB inst accesses
system.cpu.itb.stage2_mmu.stage2_tlb.inst_hits            0                       # ITB inst hits
system.cpu.itb.stage2_mmu.stage2_tlb.inst_misses            0                       # ITB inst misses
system.cpu.itb.stage2_mmu.stage2_tlb.misses            0                       # DTB misses
system.cpu.itb.stage2_mmu.stage2_tlb.perms_faults            0                       # Number of TLB faults due to permissions restrictions
system.cpu.itb.stage2_mmu.stage2_tlb.prefetch_faults            0                       # Number of TLB faults due to prefetch
system.cpu.itb.stage2_mmu.stage2_tlb.read_accesses            0                       # DTB read accesses
system.cpu.itb.stage2_mmu.stage2_tlb.read_hits            0                       # DTB read hits
system.cpu.itb.stage2_mmu.stage2_tlb.read_misses            0                       # DTB read misses
system.cpu.itb.stage2_mmu.stage2_tlb.walker.walkRequestOrigin_Requested::Data            0                       # Table walker requests started/completed, data/inst
system.cpu.itb.stage2_mmu.stage2_tlb.walker.walkRequestOrigin_Requested::Inst            0                       # Table walker requests started/completed, data/inst
system.cpu.itb.stage2_mmu.stage2_tlb.walker.walkRequestOrigin_Requested::total            0                       # Table walker requests started/completed, data/inst
system.cpu.itb.stage2_mmu.stage2_tlb.walker.walkRequestOrigin_Completed::Data            0                       # Table walker requests started/completed, data/inst
system.cpu.itb.stage2_mmu.stage2_tlb.walker.walkRequestOrigin_Completed::Inst            0                       # Table walker requests started/completed, data/inst
system.cpu.itb.stage2_mmu.stage2_tlb.walker.walkRequestOrigin_Completed::total            0                       # Table walker requests started/completed, data/inst
system.cpu.itb.stage2_mmu.stage2_tlb.walker.walkRequestOrigin::total            0                       # Table walker requests started/completed, data/inst
system.cpu.itb.stage2_mmu.stage2_tlb.walker.walks            0                       # Table walker walks requested
system.cpu.itb.stage2_mmu.stage2_tlb.write_accesses            0                       # DTB write accesses
system.cpu.itb.stage2_mmu.stage2_tlb.write_hits            0                       # DTB write hits
system.cpu.itb.stage2_mmu.stage2_tlb.write_misses            0                       # DTB write misses
system.cpu.itb.walker.walkRequestOrigin_Requested::Data            0                       # Table walker requests started/completed, data/inst
system.cpu.itb.walker.walkRequestOrigin_Requested::Inst            0                       # Table walker requests started/completed, data/inst
system.cpu.itb.walker.walkRequestOrigin_Requested::total            0                       # Table walker requests started/completed, data/inst
system.cpu.itb.walker.walkRequestOrigin_Completed::Data            0                       # Table walker requests started/completed, data/inst
system.cpu.itb.walker.walkRequestOrigin_Completed::Inst            0                       # Table walker requests started/completed, data/inst
system.cpu.itb.walker.walkRequestOrigin_Completed::total            0                       # Table walker requests started/completed, data/inst
system.cpu.itb.walker.walkRequestOrigin::total            0                       # Table walker requests started/completed, data/inst
system.cpu.itb.walker.walks                         0                       # Table walker walks requested
system.cpu.itb.write_accesses                       0                       # DTB write accesses
system.cpu.itb.write_hits                           0                       # DTB write hits
system.cpu.itb.write_misses                         0                       # DTB write misses
system.cpu.memDep0.conflictingLoads                 0                       # Number of conflicting loads.
system.cpu.memDep0.conflictingStores                0                       # Number of conflicting stores.
system.cpu.memDep0.insertedLoads             33722586                       # Number of loads inserted to the mem dependence unit.
system.cpu.memDep0.insertedStores               67390                       # Number of stores inserted to the mem dependence unit.
system.cpu.misc_regfile_reads               478508104                       # number of misc regfile reads
system.cpu.misc_regfile_writes               16777287                       # number of misc regfile writes
system.cpu.numCycles                        117198820                       # number of cpu cycles simulated
system.cpu.numWorkItemsCompleted                    0                       # number of work items this cpu completed
system.cpu.numWorkItemsStarted                      0                       # number of work items this cpu started
system.cpu.rename.BlockCycles                16925242                       # Number of cycles rename is blocking
system.cpu.rename.CommittedMaps             168766901                       # Number of HB maps that are committed
system.cpu.rename.FullRegisterEvents               39                       # Number of times there has been no free registers
system.cpu.rename.IdleCycles                 21660426                       # Number of cycles rename is idle
system.cpu.rename.LQFullEvents               38331126                       # Number of times rename has blocked due to LQ full
system.cpu.rename.ROBFullEvents              33166561                       # Number of times rename has blocked due to ROB full
system.cpu.rename.RenameLookups             338263572                       # Number of register rename lookups that rename has made
system.cpu.rename.RenamedInsts              118649362                       # Number of instructions processed by rename
system.cpu.rename.RenamedOperands           169197308                       # Number of destination operands rename has renamed
system.cpu.rename.RunCycles                  31144274                       # Number of cycles rename is running
system.cpu.rename.SQFullEvents                   1225                       # Number of times rename has blocked due to SQ full
system.cpu.rename.SquashCycles                  66379                       # Number of cycles rename is squashing
system.cpu.rename.SquashedInsts                133038                       # Number of squashed instructions processed by rename
system.cpu.rename.UnblockCycles              47358716                       # Number of cycles rename is unblocking
system.cpu.rename.UndoneMaps                   430407                       # Number of HB maps that are undone due to squashing
system.cpu.rename.int_rename_lookups        118883923                       # Number of integer rename lookups
system.cpu.rename.serializeStallCycles           3078                       # count of cycles rename stalled for serializing inst
system.cpu.rename.serializingInsts                 66                       # count of serializing insts renamed
system.cpu.rename.skidInsts                  33121481                       # count of insts added to the skid buffer
system.cpu.rename.tempSerializingInsts             25                       # count of temporary serializing insts renamed
system.cpu.rename.vec_rename_lookups         50516378                       # Number of vector rename lookups
system.cpu.rob.rob_reads                    235575343                       # The number of ROB reads
system.cpu.rob.rob_writes                   237171027                       # The number of ROB writes
system.cpu.timesIdled                             370                       # Number of times that the entire CPU went into an idle state and unscheduled itself
system.cpu.vec_regfile_reads                 50397361                       # number of vector regfile reads
system.cpu.vec_regfile_writes                50397247                       # number of vector regfile writes
system.cpu.workload.numSyscalls                    16                       # Number of system calls
system.l2.prefetcher.num_hwpf_issued             1492                       # number of hwpf issued
system.l2.prefetcher.pfBufferHit                    0                       # number of redundant prefetches already in prefetch queue
system.l2.prefetcher.pfIdentified                1492                       # number of prefetch candidates identified
system.l2.prefetcher.pfInCache                      0                       # number of redundant prefetches already in cache/mshr dropped
system.l2.prefetcher.pfRemovedFull                  0                       # number of prefetches dropped due to prefetch queue size
system.l2.prefetcher.pfSpanPage                  2136                       # number of prefetches that crossed the page
system.membus.snoop_filter.hit_multi_requests            0                       # Number of requests hitting in the snoop filter with multiple (>1) holders of the requested data.
system.membus.snoop_filter.hit_multi_snoops            0                       # Number of snoops hitting in the snoop filter with multiple (>1) holders of the requested data.
system.membus.snoop_filter.hit_single_requests            0                       # Number of requests hitting in the snoop filter with a single holder of the requested data.
system.membus.snoop_filter.hit_single_snoops            0                       # Number of snoops hitting in the snoop filter with a single holder of the requested data.
system.membus.snoop_filter.tot_requests         12953                       # Total number of requests made to the snoop filter.
system.membus.snoop_filter.tot_snoops               0                       # Total number of snoops made to the snoop filter.
system.tol2bus.snoop_filter.hit_multi_requests            5                       # Number of requests hitting in the snoop filter with multiple (>1) holders of the requested data.
system.tol2bus.snoop_filter.hit_multi_snoops            0                       # Number of snoops hitting in the snoop filter with multiple (>1) holders of the requested data.
system.tol2bus.snoop_filter.hit_single_requests     16509294                       # Number of requests hitting in the snoop filter with a single holder of the requested data.
system.tol2bus.snoop_filter.hit_single_snoops            3                       # Number of snoops hitting in the snoop filter with a single holder of the requested data.
system.tol2bus.snoop_filter.tot_requests     33020971                       # Total number of requests made to the snoop filter.
system.tol2bus.snoop_filter.tot_snoops              3                       # Total number of snoops made to the snoop filter.
system.membus.pwrStateResidencyTicks::UNDEFINED  58599409500                       # Cumulative time (in ticks) in various power states
system.membus.trans_dist::ReadResp              12865                       # Transaction distribution
system.membus.trans_dist::ReadExReq                84                       # Transaction distribution
system.membus.trans_dist::ReadExResp               84                       # Transaction distribution
system.membus.trans_dist::ReadSharedReq         12865                       # Transaction distribution
system.membus.trans_dist::InvalidateReq             4                       # Transaction distribution
system.membus.pkt_count_system.l2.mem_side::system.mem_ctrls.port        25902                       # Packet count per connected master and slave (bytes)
system.membus.pkt_count::total                  25902                       # Packet count per connected master and slave (bytes)
system.membus.pkt_size_system.l2.mem_side::system.mem_ctrls.port       828736                       # Cumulative packet size per connected master and slave (bytes)
system.membus.pkt_size::total                  828736                       # Cumulative packet size per connected master and slave (bytes)
system.membus.snoops                                0                       # Total snoops (count)
system.membus.snoopTraffic                          0                       # Total snoop traffic (bytes)
system.membus.snoop_fanout::samples             12953                       # Request fanout histogram
system.membus.snoop_fanout::mean                    0                       # Request fanout histogram
system.membus.snoop_fanout::stdev                   0                       # Request fanout histogram
system.membus.snoop_fanout::underflows              0      0.00%      0.00% # Request fanout histogram
system.membus.snoop_fanout::0                   12953    100.00%    100.00% # Request fanout histogram
system.membus.snoop_fanout::1                       0      0.00%    100.00% # Request fanout histogram
system.membus.snoop_fanout::overflows               0      0.00%    100.00% # Request fanout histogram
system.membus.snoop_fanout::min_value               0                       # Request fanout histogram
system.membus.snoop_fanout::max_value               0                       # Request fanout histogram
system.membus.snoop_fanout::total               12953                       # Request fanout histogram
system.membus.respLayer1.occupancy           68376325                       # Layer occupancy (ticks)
system.membus.respLayer1.utilization              0.1                       # Layer utilization (%)
system.membus.reqLayer0.occupancy            15115233                       # Layer occupancy (ticks)
system.membus.reqLayer0.utilization               0.0                       # Layer utilization (%)
system.tol2bus.pwrStateResidencyTicks::UNDEFINED  58599409500                       # Cumulative time (in ticks) in various power states
system.tol2bus.trans_dist::ReadResp          16505766                       # Transaction distribution
system.tol2bus.trans_dist::WritebackDirty        70014                       # Transaction distribution
system.tol2bus.trans_dist::WritebackClean           98                       # Transaction distribution
system.tol2bus.trans_dist::CleanEvict        16439185                       # Transaction distribution
system.tol2bus.trans_dist::HardPFReq             2031                       # Transaction distribution
system.tol2bus.trans_dist::ReadExReq             5906                       # Transaction distribution
system.tol2bus.trans_dist::ReadExResp            5906                       # Transaction distribution
system.tol2bus.trans_dist::ReadCleanReq           433                       # Transaction distribution
system.tol2bus.trans_dist::ReadSharedReq     16505334                       # Transaction distribution
system.tol2bus.trans_dist::InvalidateReq            4                       # Transaction distribution
system.tol2bus.trans_dist::InvalidateResp            4                       # Transaction distribution
system.tol2bus.pkt_count_system.cpu.icache.mem_side::system.l2.cpu_side          963                       # Packet count per connected master and slave (bytes)
system.tol2bus.pkt_count_system.cpu.dcache.mem_side::system.l2.cpu_side     49531684                       # Packet count per connected master and slave (bytes)
system.tol2bus.pkt_count::total              49532647                       # Packet count per connected master and slave (bytes)
system.tol2bus.pkt_size_system.cpu.icache.mem_side::system.l2.cpu_side        33920                       # Cumulative packet size per connected master and slave (bytes)
system.tol2bus.pkt_size_system.cpu.dcache.mem_side::system.l2.cpu_side   1061200256                       # Cumulative packet size per connected master and slave (bytes)
system.tol2bus.pkt_size::total             1061234176                       # Cumulative packet size per connected master and slave (bytes)
system.tol2bus.snoops                            2034                       # Total snoops (count)
system.tol2bus.snoopTraffic                         0                       # Total snoop traffic (bytes)
system.tol2bus.snoop_fanout::samples         16513711                       # Request fanout histogram
system.tol2bus.snoop_fanout::mean            0.000000                       # Request fanout histogram
system.tol2bus.snoop_fanout::stdev           0.000696                       # Request fanout histogram
system.tol2bus.snoop_fanout::underflows             0      0.00%      0.00% # Request fanout histogram
system.tol2bus.snoop_fanout::0               16513703    100.00%    100.00% # Request fanout histogram
system.tol2bus.snoop_fanout::1                      8      0.00%    100.00% # Request fanout histogram
system.tol2bus.snoop_fanout::2                      0      0.00%    100.00% # Request fanout histogram
system.tol2bus.snoop_fanout::overflows              0      0.00%    100.00% # Request fanout histogram
system.tol2bus.snoop_fanout::min_value              0                       # Request fanout histogram
system.tol2bus.snoop_fanout::max_value              1                       # Request fanout histogram
system.tol2bus.snoop_fanout::total           16513711                       # Request fanout histogram
system.tol2bus.reqLayer0.occupancy        16601465644                       # Layer occupancy (ticks)
system.tol2bus.reqLayer0.utilization             28.3                       # Layer utilization (%)
system.tol2bus.respLayer1.occupancy       24766862000                       # Layer occupancy (ticks)
system.tol2bus.respLayer1.utilization            42.3                       # Layer utilization (%)
system.tol2bus.respLayer0.occupancy            648000                       # Layer occupancy (ticks)
system.tol2bus.respLayer0.utilization             0.0                       # Layer utilization (%)
system.voltage_domain.voltage                       1                       # Voltage in Volts
system.clk_domain.clock                          1000                       # Clock period in ticks
system.l2.pwrStateResidencyTicks::UNDEFINED  58599409500                       # Cumulative time (in ticks) in various power states
system.l2.demand_hits::.cpu.inst                   16                       # number of demand (read+write) hits
system.l2.demand_hits::.cpu.data             16460230                       # number of demand (read+write) hits
system.l2.demand_hits::.cpu.dcache.prefetcher        39380                       # number of demand (read+write) hits
system.l2.demand_hits::total                 16499626                       # number of demand (read+write) hits
system.l2.overall_hits::.cpu.inst                  16                       # number of overall hits
system.l2.overall_hits::.cpu.data            16460230                       # number of overall hits
system.l2.overall_hits::.cpu.dcache.prefetcher        39380                       # number of overall hits
system.l2.overall_hits::total                16499626                       # number of overall hits
system.l2.demand_misses::.cpu.inst                417                       # number of demand (read+write) misses
system.l2.demand_misses::.cpu.data               7599                       # number of demand (read+write) misses
system.l2.demand_misses::.cpu.dcache.prefetcher         4031                       # number of demand (read+write) misses
system.l2.demand_misses::total                  12047                       # number of demand (read+write) misses
system.l2.overall_misses::.cpu.inst               417                       # number of overall misses
system.l2.overall_misses::.cpu.data              7599                       # number of overall misses
system.l2.overall_misses::.cpu.dcache.prefetcher         4031                       # number of overall misses
system.l2.overall_misses::total                 12047                       # number of overall misses
system.l2.demand_miss_latency::.cpu.inst     33022500                       # number of demand (read+write) miss cycles
system.l2.demand_miss_latency::.cpu.data    593768500                       # number of demand (read+write) miss cycles
system.l2.demand_miss_latency::.cpu.dcache.prefetcher    319498724                       # number of demand (read+write) miss cycles
system.l2.demand_miss_latency::total        946289724                       # number of demand (read+write) miss cycles
system.l2.overall_miss_latency::.cpu.inst     33022500                       # number of overall miss cycles
system.l2.overall_miss_latency::.cpu.data    593768500                       # number of overall miss cycles
system.l2.overall_miss_latency::.cpu.dcache.prefetcher    319498724                       # number of overall miss cycles
system.l2.overall_miss_latency::total       946289724                       # number of overall miss cycles
system.l2.demand_accesses::.cpu.inst              433                       # number of demand (read+write) accesses
system.l2.demand_accesses::.cpu.data         16467829                       # number of demand (read+write) accesses
system.l2.demand_accesses::.cpu.dcache.prefetcher        43411                       # number of demand (read+write) accesses
system.l2.demand_accesses::total             16511673                       # number of demand (read+write) accesses
system.l2.overall_accesses::.cpu.inst             433                       # number of overall (read+write) accesses
system.l2.overall_accesses::.cpu.data        16467829                       # number of overall (read+write) accesses
system.l2.overall_accesses::.cpu.dcache.prefetcher        43411                       # number of overall (read+write) accesses
system.l2.overall_accesses::total            16511673                       # number of overall (read+write) accesses
system.l2.demand_miss_rate::.cpu.inst        0.963048                       # miss rate for demand accesses
system.l2.demand_miss_rate::.cpu.data        0.000461                       # miss rate for demand accesses
system.l2.demand_miss_rate::.cpu.dcache.prefetcher     0.092857                       # miss rate for demand accesses
system.l2.demand_miss_rate::total            0.000730                       # miss rate for demand accesses
system.l2.overall_miss_rate::.cpu.inst       0.963048                       # miss rate for overall accesses
system.l2.overall_miss_rate::.cpu.data       0.000461                       # miss rate for overall accesses
system.l2.overall_miss_rate::.cpu.dcache.prefetcher     0.092857                       # miss rate for overall accesses
system.l2.overall_miss_rate::total           0.000730                       # miss rate for overall accesses
system.l2.demand_avg_miss_latency::.cpu.inst 79190.647482                       # average overall miss latency
system.l2.demand_avg_miss_latency::.cpu.data 78137.715489                       # average overall miss latency
system.l2.demand_avg_miss_latency::.cpu.dcache.prefetcher 79260.412801                       # average overall miss latency
system.l2.demand_avg_miss_latency::total 78549.823525                       # average overall miss latency
system.l2.overall_avg_miss_latency::.cpu.inst 79190.647482                       # average overall miss latency
system.l2.overall_avg_miss_latency::.cpu.data 78137.715489                       # average overall miss latency
system.l2.overall_avg_miss_latency::.cpu.dcache.prefetcher 79260.412801                       # average overall miss latency
system.l2.overall_avg_miss_latency::total 78549.823525                       # average overall miss latency
system.l2.blocked_cycles::no_mshrs                  0                       # number of cycles access was blocked
system.l2.blocked_cycles::no_targets                0                       # number of cycles access was blocked
system.l2.blocked::no_mshrs                         0                       # number of cycles access was blocked
system.l2.blocked::no_targets                       0                       # number of cycles access was blocked
system.l2.avg_blocked_cycles::no_mshrs            nan                       # average number of cycles each access was blocked
system.l2.avg_blocked_cycles::no_targets          nan                       # average number of cycles each access was blocked
system.l2.demand_mshr_hits::.cpu.data             314                       # number of demand (read+write) MSHR hits
system.l2.demand_mshr_hits::.cpu.dcache.prefetcher            9                       # number of demand (read+write) MSHR hits
system.l2.demand_mshr_hits::total                 323                       # number of demand (read+write) MSHR hits
system.l2.overall_mshr_hits::.cpu.data            314                       # number of overall MSHR hits
system.l2.overall_mshr_hits::.cpu.dcache.prefetcher            9                       # number of overall MSHR hits
system.l2.overall_mshr_hits::total                323                       # number of overall MSHR hits
system.l2.demand_mshr_misses::.cpu.inst           417                       # number of demand (read+write) MSHR misses
system.l2.demand_mshr_misses::.cpu.data          7285                       # number of demand (read+write) MSHR misses
system.l2.demand_mshr_misses::.cpu.dcache.prefetcher         4022                       # number of demand (read+write) MSHR misses
system.l2.demand_mshr_misses::total             11724                       # number of demand (read+write) MSHR misses
system.l2.overall_mshr_misses::.cpu.inst          417                       # number of overall MSHR misses
system.l2.overall_mshr_misses::.cpu.data         7285                       # number of overall MSHR misses
system.l2.overall_mshr_misses::.cpu.dcache.prefetcher         4022                       # number of overall MSHR misses
system.l2.overall_mshr_misses::.l2.prefetcher         1226                       # number of overall MSHR misses
system.l2.overall_mshr_misses::total            12950                       # number of overall MSHR misses
system.l2.demand_mshr_miss_latency::.cpu.inst     28862500                       # number of demand (read+write) MSHR miss cycles
system.l2.demand_mshr_miss_latency::.cpu.data    505363500                       # number of demand (read+write) MSHR miss cycles
system.l2.demand_mshr_miss_latency::.cpu.dcache.prefetcher    279050235                       # number of demand (read+write) MSHR miss cycles
system.l2.demand_mshr_miss_latency::total    813276235                       # number of demand (read+write) MSHR miss cycles
system.l2.overall_mshr_miss_latency::.cpu.inst     28862500                       # number of overall MSHR miss cycles
system.l2.overall_mshr_miss_latency::.cpu.data    505363500                       # number of overall MSHR miss cycles
system.l2.overall_mshr_miss_latency::.cpu.dcache.prefetcher    279050235                       # number of overall MSHR miss cycles
system.l2.overall_mshr_miss_latency::.l2.prefetcher     79020742                       # number of overall MSHR miss cycles
system.l2.overall_mshr_miss_latency::total    892296977                       # number of overall MSHR miss cycles
system.l2.demand_mshr_miss_rate::.cpu.inst     0.963048                       # mshr miss rate for demand accesses
system.l2.demand_mshr_miss_rate::.cpu.data     0.000442                       # mshr miss rate for demand accesses
system.l2.demand_mshr_miss_rate::.cpu.dcache.prefetcher     0.092649                       # mshr miss rate for demand accesses
system.l2.demand_mshr_miss_rate::total       0.000710                       # mshr miss rate for demand accesses
system.l2.overall_mshr_miss_rate::.cpu.inst     0.963048                       # mshr miss rate for overall accesses
system.l2.overall_mshr_miss_rate::.cpu.data     0.000442                       # mshr miss rate for overall accesses
system.l2.overall_mshr_miss_rate::.cpu.dcache.prefetcher     0.092649                       # mshr miss rate for overall accesses
system.l2.overall_mshr_miss_rate::.l2.prefetcher          inf                       # mshr miss rate for overall accesses
system.l2.overall_mshr_miss_rate::total      0.000784                       # mshr miss rate for overall accesses
system.l2.demand_avg_mshr_miss_latency::.cpu.inst 69214.628297                       # average overall mshr miss latency
system.l2.demand_avg_mshr_miss_latency::.cpu.data 69370.418668                       # average overall mshr miss latency
system.l2.demand_avg_mshr_miss_latency::.cpu.dcache.prefetcher 69380.963451                       # average overall mshr miss latency
system.l2.demand_avg_mshr_miss_latency::total 69368.494968                       # average overall mshr miss latency
system.l2.overall_avg_mshr_miss_latency::.cpu.inst 69214.628297                       # average overall mshr miss latency
system.l2.overall_avg_mshr_miss_latency::.cpu.data 69370.418668                       # average overall mshr miss latency
system.l2.overall_avg_mshr_miss_latency::.cpu.dcache.prefetcher 69380.963451                       # average overall mshr miss latency
system.l2.overall_avg_mshr_miss_latency::.l2.prefetcher 64454.112561                       # average overall mshr miss latency
system.l2.overall_avg_mshr_miss_latency::total 68903.241467                       # average overall mshr miss latency
system.l2.replacements                              3                       # number of replacements
system.l2.WritebackDirty_hits::.writebacks        70014                       # number of WritebackDirty hits
system.l2.WritebackDirty_hits::total            70014                       # number of WritebackDirty hits
system.l2.WritebackDirty_accesses::.writebacks        70014                       # number of WritebackDirty accesses(hits+misses)
system.l2.WritebackDirty_accesses::total        70014                       # number of WritebackDirty accesses(hits+misses)
system.l2.WritebackClean_hits::.writebacks           97                       # number of WritebackClean hits
system.l2.WritebackClean_hits::total               97                       # number of WritebackClean hits
system.l2.WritebackClean_accesses::.writebacks           97                       # number of WritebackClean accesses(hits+misses)
system.l2.WritebackClean_accesses::total           97                       # number of WritebackClean accesses(hits+misses)
[...]
system.cpu.dcache.overall_mshr_misses::.cpu.dcache.prefetcher        43411                       # number of overall MSHR misses
system.cpu.dcache.overall_mshr_misses::total     16511242                       # number of overall MSHR misses
system.cpu.dcache.demand_mshr_miss_latency::.cpu.data 209584095377                       # number of demand (read+write) MSHR miss cycles
system.cpu.dcache.demand_mshr_miss_latency::total 209584095377                       # number of demand (read+write) MSHR miss cycles
system.cpu.dcache.overall_mshr_miss_latency::.cpu.data 209584095377                       # number of overall MSHR miss cycles
system.cpu.dcache.overall_mshr_miss_latency::.cpu.dcache.prefetcher    795596010                       # number of overall MSHR miss cycles
system.cpu.dcache.overall_mshr_miss_latency::total 210379691387                       # number of overall MSHR miss cycles
system.cpu.dcache.demand_mshr_miss_rate::.cpu.data     0.488826                       # mshr miss rate for demand accesses
system.cpu.dcache.demand_mshr_miss_rate::total     0.488826                       # mshr miss rate for demand accesses
system.cpu.dcache.overall_mshr_miss_rate::.cpu.data     0.488826                       # mshr miss rate for overall accesses
system.cpu.dcache.overall_mshr_miss_rate::.cpu.dcache.prefetcher          inf                       # mshr miss rate for overall accesses
system.cpu.dcache.overall_mshr_miss_rate::total     0.490114                       # mshr miss rate for overall accesses
system.cpu.dcache.demand_avg_mshr_miss_latency::.cpu.data 12726.879173                       # average overall mshr miss latency
system.cpu.dcache.demand_avg_mshr_miss_latency::total 12726.879173                       # average overall mshr miss latency
system.cpu.dcache.overall_avg_mshr_miss_latency::.cpu.data 12726.879173                       # average overall mshr miss latency
system.cpu.dcache.overall_avg_mshr_miss_latency::.cpu.dcache.prefetcher 18327.060192                       # average overall mshr miss latency
system.cpu.dcache.overall_avg_mshr_miss_latency::total 12741.603048                       # average overall mshr miss latency
system.cpu.dcache.replacements               16509196                       # number of replacements
system.cpu.dcache.ReadReq_hits::.cpu.data     17036063                       # number of ReadReq hits
system.cpu.dcache.ReadReq_hits::total        17036063                       # number of ReadReq hits
system.cpu.dcache.ReadReq_misses::.cpu.data     16585489                       # number of ReadReq misses
system.cpu.dcache.ReadReq_misses::total      16585489                       # number of ReadReq misses
system.cpu.dcache.ReadReq_miss_latency::.cpu.data 227512112500                       # number of ReadReq miss cycles
system.cpu.dcache.ReadReq_miss_latency::total 227512112500                       # number of ReadReq miss cycles
system.cpu.dcache.ReadReq_accesses::.cpu.data     33621552                       # number of ReadReq accesses(hits+misses)
system.cpu.dcache.ReadReq_accesses::total     33621552                       # number of ReadReq accesses(hits+misses)
system.cpu.dcache.ReadReq_miss_rate::.cpu.data     0.493299                       # miss rate for ReadReq accesses
system.cpu.dcache.ReadReq_miss_rate::total     0.493299                       # miss rate for ReadReq accesses
system.cpu.dcache.ReadReq_avg_miss_latency::.cpu.data 13717.540224                       # average ReadReq miss latency
system.cpu.dcache.ReadReq_avg_miss_latency::total 13717.540224                       # average ReadReq miss latency
system.cpu.dcache.ReadReq_mshr_hits::.cpu.data       123564                       # number of ReadReq MSHR hits
system.cpu.dcache.ReadReq_mshr_hits::total       123564                       # number of ReadReq MSHR hits
system.cpu.dcache.ReadReq_mshr_misses::.cpu.data     16461925                       # number of ReadReq MSHR misses
system.cpu.dcache.ReadReq_mshr_misses::total     16461925                       # number of ReadReq MSHR misses
system.cpu.dcache.ReadReq_mshr_miss_latency::.cpu.data 209481806000                       # number of ReadReq MSHR miss cycles
system.cpu.dcache.ReadReq_mshr_miss_latency::total 209481806000                       # number of ReadReq MSHR miss cycles
system.cpu.dcache.ReadReq_mshr_miss_rate::.cpu.data     0.489624                       # mshr miss rate for ReadReq accesses
system.cpu.dcache.ReadReq_mshr_miss_rate::total     0.489624                       # mshr miss rate for ReadReq accesses
system.cpu.dcache.ReadReq_avg_mshr_miss_latency::.cpu.data 12725.231466                       # average ReadReq mshr miss latency
system.cpu.dcache.ReadReq_avg_mshr_miss_latency::total 12725.231466                       # average ReadReq mshr miss latency
system.cpu.dcache.WriteReq_hits::.cpu.data        60681                       # number of WriteReq hits
system.cpu.dcache.WriteReq_hits::total          60681                       # number of WriteReq hits
system.cpu.dcache.WriteReq_misses::.cpu.data         6323                       # number of WriteReq misses
system.cpu.dcache.WriteReq_misses::total         6323                       # number of WriteReq misses
system.cpu.dcache.WriteReq_miss_latency::.cpu.data    129118827                       # number of WriteReq miss cycles
system.cpu.dcache.WriteReq_miss_latency::total    129118827                       # number of WriteReq miss cycles
system.cpu.dcache.WriteReq_accesses::.cpu.data        67004                       # number of WriteReq accesses(hits+misses)
system.cpu.dcache.WriteReq_accesses::total        67004                       # number of WriteReq accesses(hits+misses)
system.cpu.dcache.WriteReq_miss_rate::.cpu.data     0.094368                       # miss rate for WriteReq accesses
system.cpu.dcache.WriteReq_miss_rate::total     0.094368                       # miss rate for WriteReq accesses
system.cpu.dcache.WriteReq_avg_miss_latency::.cpu.data 20420.500870                       # average WriteReq miss latency
system.cpu.dcache.WriteReq_avg_miss_latency::total 20420.500870                       # average WriteReq miss latency
system.cpu.dcache.WriteReq_mshr_hits::.cpu.data          421                       # number of WriteReq MSHR hits
system.cpu.dcache.WriteReq_mshr_hits::total          421                       # number of WriteReq MSHR hits
system.cpu.dcache.WriteReq_mshr_misses::.cpu.data         5902                       # number of WriteReq MSHR misses
system.cpu.dcache.WriteReq_mshr_misses::total         5902                       # number of WriteReq MSHR misses
system.cpu.dcache.WriteReq_mshr_miss_latency::.cpu.data    102165879                       # number of WriteReq MSHR miss cycles
system.cpu.dcache.WriteReq_mshr_miss_latency::total    102165879                       # number of WriteReq MSHR miss cycles
system.cpu.dcache.WriteReq_mshr_miss_rate::.cpu.data     0.088084                       # mshr miss rate for WriteReq accesses
system.cpu.dcache.WriteReq_mshr_miss_rate::total     0.088084                       # mshr miss rate for WriteReq accesses
system.cpu.dcache.WriteReq_avg_mshr_miss_latency::.cpu.data 17310.382752                       # average WriteReq mshr miss latency
system.cpu.dcache.WriteReq_avg_mshr_miss_latency::total 17310.382752                       # average WriteReq mshr miss latency
system.cpu.dcache.HardPFReq_mshr_misses::.cpu.dcache.prefetcher        43411                       # number of HardPFReq MSHR misses
system.cpu.dcache.HardPFReq_mshr_misses::total        43411                       # number of HardPFReq MSHR misses
system.cpu.dcache.HardPFReq_mshr_miss_latency::.cpu.dcache.prefetcher    795596010                       # number of HardPFReq MSHR miss cycles
system.cpu.dcache.HardPFReq_mshr_miss_latency::total    795596010                       # number of HardPFReq MSHR miss cycles
system.cpu.dcache.HardPFReq_mshr_miss_rate::.cpu.dcache.prefetcher          inf                       # mshr miss rate for HardPFReq accesses
system.cpu.dcache.HardPFReq_mshr_miss_rate::total          inf                       # mshr miss rate for HardPFReq accesses
system.cpu.dcache.HardPFReq_avg_mshr_miss_latency::.cpu.dcache.prefetcher 18327.060192                       # average HardPFReq mshr miss latency
system.cpu.dcache.HardPFReq_avg_mshr_miss_latency::total 18327.060192                       # average HardPFReq mshr miss latency
system.cpu.dcache.WriteLineReq_misses::.cpu.data            7                       # number of WriteLineReq misses
system.cpu.dcache.WriteLineReq_misses::total            7                       # number of WriteLineReq misses
system.cpu.dcache.WriteLineReq_miss_latency::.cpu.data       252998                       # number of WriteLineReq miss cycles
system.cpu.dcache.WriteLineReq_miss_latency::total       252998                       # number of WriteLineReq miss cycles
system.cpu.dcache.WriteLineReq_accesses::.cpu.data            7                       # number of WriteLineReq accesses(hits+misses)
system.cpu.dcache.WriteLineReq_accesses::total            7                       # number of WriteLineReq accesses(hits+misses)
system.cpu.dcache.WriteLineReq_miss_rate::.cpu.data            1                       # miss rate for WriteLineReq accesses
system.cpu.dcache.WriteLineReq_miss_rate::total            1                       # miss rate for WriteLineReq accesses
system.cpu.dcache.WriteLineReq_avg_miss_latency::.cpu.data 36142.571429                       # average WriteLineReq miss latency
system.cpu.dcache.WriteLineReq_avg_miss_latency::total 36142.571429                       # average WriteLineReq miss latency
system.cpu.dcache.WriteLineReq_mshr_hits::.cpu.data            3                       # number of WriteLineReq MSHR hits
system.cpu.dcache.WriteLineReq_mshr_hits::total            3                       # number of WriteLineReq MSHR hits
system.cpu.dcache.WriteLineReq_mshr_misses::.cpu.data            4                       # number of WriteLineReq MSHR misses
system.cpu.dcache.WriteLineReq_mshr_misses::total            4                       # number of WriteLineReq MSHR misses
system.cpu.dcache.WriteLineReq_mshr_miss_latency::.cpu.data       123498                       # number of WriteLineReq MSHR miss cycles
system.cpu.dcache.WriteLineReq_mshr_miss_latency::total       123498                       # number of WriteLineReq MSHR miss cycles
system.cpu.dcache.WriteLineReq_mshr_miss_rate::.cpu.data     0.571429                       # mshr miss rate for WriteLineReq accesses
system.cpu.dcache.WriteLineReq_mshr_miss_rate::total     0.571429                       # mshr miss rate for WriteLineReq accesses
system.cpu.dcache.WriteLineReq_avg_mshr_miss_latency::.cpu.data 30874.500000                       # average WriteLineReq mshr miss latency
system.cpu.dcache.WriteLineReq_avg_mshr_miss_latency::total 30874.500000                       # average WriteLineReq mshr miss latency
system.cpu.dcache.LoadLockedReq_hits::.cpu.data            3                       # number of LoadLockedReq hits
system.cpu.dcache.LoadLockedReq_hits::total            3                       # number of LoadLockedReq hits
system.cpu.dcache.LoadLockedReq_misses::.cpu.data            1                       # number of LoadLockedReq misses
system.cpu.dcache.LoadLockedReq_misses::total            1                       # number of LoadLockedReq misses
system.cpu.dcache.LoadLockedReq_miss_latency::.cpu.data        76000                       # number of LoadLockedReq miss cycles
system.cpu.dcache.LoadLockedReq_miss_latency::total        76000                       # number of LoadLockedReq miss cycles
system.cpu.dcache.LoadLockedReq_accesses::.cpu.data            4                       # number of LoadLockedReq accesses(hits+misses)
system.cpu.dcache.LoadLockedReq_accesses::total            4                       # number of LoadLockedReq accesses(hits+misses)
system.cpu.dcache.LoadLockedReq_miss_rate::.cpu.data     0.250000                       # miss rate for LoadLockedReq accesses
system.cpu.dcache.LoadLockedReq_miss_rate::total     0.250000                       # miss rate for LoadLockedReq accesses
system.cpu.dcache.LoadLockedReq_avg_miss_latency::.cpu.data        76000                       # average LoadLockedReq miss latency
system.cpu.dcache.LoadLockedReq_avg_miss_latency::total        76000                       # average LoadLockedReq miss latency
system.cpu.dcache.LoadLockedReq_mshr_misses::.cpu.data            1                       # number of LoadLockedReq MSHR misses
system.cpu.dcache.LoadLockedReq_mshr_misses::total            1                       # number of LoadLockedReq MSHR misses
system.cpu.dcache.LoadLockedReq_mshr_miss_latency::.cpu.data        75000                       # number of LoadLockedReq MSHR miss cycles
system.cpu.dcache.LoadLockedReq_mshr_miss_latency::total        75000                       # number of LoadLockedReq MSHR miss cycles
system.cpu.dcache.LoadLockedReq_mshr_miss_rate::.cpu.data     0.250000                       # mshr miss rate for LoadLockedReq accesses
system.cpu.dcache.LoadLockedReq_mshr_miss_rate::total     0.250000                       # mshr miss rate for LoadLockedReq accesses
system.cpu.dcache.LoadLockedReq_avg_mshr_miss_latency::.cpu.data        75000                       # average LoadLockedReq mshr miss latency
system.cpu.dcache.LoadLockedReq_avg_mshr_miss_latency::total        75000                       # average LoadLockedReq mshr miss latency
system.cpu.dcache.StoreCondReq_hits::.cpu.data            4                       # number of StoreCondReq hits
system.cpu.dcache.StoreCondReq_hits::total            4                       # number of StoreCondReq hits
system.cpu.dcache.StoreCondReq_accesses::.cpu.data            4                       # number of StoreCondReq accesses(hits+misses)
system.cpu.dcache.StoreCondReq_accesses::total            4                       # number of StoreCondReq accesses(hits+misses)
system.cpu.dcache.SwapReq_hits::.cpu.data           24                       # number of SwapReq hits
system.cpu.dcache.SwapReq_hits::total              24                       # number of SwapReq hits
system.cpu.dcache.SwapReq_misses::.cpu.data            2                       # number of SwapReq misses
system.cpu.dcache.SwapReq_misses::total             2                       # number of SwapReq misses
system.cpu.dcache.SwapReq_miss_latency::.cpu.data        80500                       # number of SwapReq miss cycles
system.cpu.dcache.SwapReq_miss_latency::total        80500                       # number of SwapReq miss cycles
system.cpu.dcache.SwapReq_accesses::.cpu.data           26                       # number of SwapReq accesses(hits+misses)
system.cpu.dcache.SwapReq_accesses::total           26                       # number of SwapReq accesses(hits+misses)
system.cpu.dcache.SwapReq_miss_rate::.cpu.data     0.076923                       # miss rate for SwapReq accesses
system.cpu.dcache.SwapReq_miss_rate::total     0.076923                       # miss rate for SwapReq accesses
system.cpu.dcache.SwapReq_avg_miss_latency::.cpu.data        40250                       # average SwapReq miss latency
system.cpu.dcache.SwapReq_avg_miss_latency::total        40250                       # average SwapReq miss latency
system.cpu.dcache.SwapReq_mshr_hits::.cpu.data            1                       # number of SwapReq MSHR hits
system.cpu.dcache.SwapReq_mshr_hits::total            1                       # number of SwapReq MSHR hits
system.cpu.dcache.SwapReq_mshr_misses::.cpu.data            1                       # number of SwapReq MSHR misses
system.cpu.dcache.SwapReq_mshr_misses::total            1                       # number of SwapReq MSHR misses
system.cpu.dcache.SwapReq_mshr_miss_latency::.cpu.data        12000                       # number of SwapReq MSHR miss cycles
system.cpu.dcache.SwapReq_mshr_miss_latency::total        12000                       # number of SwapReq MSHR miss cycles
system.cpu.dcache.SwapReq_mshr_miss_rate::.cpu.data     0.038462                       # mshr miss rate for SwapReq accesses
system.cpu.dcache.SwapReq_mshr_miss_rate::total     0.038462                       # mshr miss rate for SwapReq accesses
system.cpu.dcache.SwapReq_avg_mshr_miss_latency::.cpu.data        12000                       # average SwapReq mshr miss latency
system.cpu.dcache.SwapReq_avg_mshr_miss_latency::total        12000                       # average SwapReq mshr miss latency
system.cpu.dcache.prefetcher.pwrStateResidencyTicks::UNDEFINED  58599409500                       # Cumulative time (in ticks) in various power states
system.cpu.dcache.tags.pwrStateResidencyTicks::UNDEFINED  58599409500                       # Cumulative time (in ticks) in various power states
system.cpu.dcache.tags.tagsinuse          2043.243166                       # Cycle average of tags in use
system.cpu.dcache.tags.total_refs            33608019                       # Total number of references to valid blocks.
system.cpu.dcache.tags.sampled_refs          16511244                       # Sample count of references to valid blocks.
system.cpu.dcache.tags.avg_refs              2.035463                       # Average number of references to valid blocks.
system.cpu.dcache.tags.warmup_cycle            178500                       # Cycle when the warmup percentage was hit.
system.cpu.dcache.tags.occ_blocks::.cpu.data  1660.066345                       # Average occupied blocks per requestor
system.cpu.dcache.tags.occ_blocks::.cpu.dcache.prefetcher   383.176821                       # Average occupied blocks per requestor
system.cpu.dcache.tags.occ_percent::.cpu.data     0.810579                       # Average percentage of cache occupancy
system.cpu.dcache.tags.occ_percent::.cpu.dcache.prefetcher     0.187098                       # Average percentage of cache occupancy
system.cpu.dcache.tags.occ_percent::total     0.997677                       # Average percentage of cache occupancy
system.cpu.dcache.tags.occ_task_id_blocks::1022          434                       # Occupied blocks per task id
system.cpu.dcache.tags.occ_task_id_blocks::1024         1614                       # Occupied blocks per task id
system.cpu.dcache.tags.age_task_id_blocks_1022::0           15                       # Occupied blocks per task id
system.cpu.dcache.tags.age_task_id_blocks_1022::1           16                       # Occupied blocks per task id
system.cpu.dcache.tags.age_task_id_blocks_1022::2           12                       # Occupied blocks per task id
system.cpu.dcache.tags.age_task_id_blocks_1022::4          391                       # Occupied blocks per task id
system.cpu.dcache.tags.age_task_id_blocks_1024::0          135                       # Occupied blocks per task id
system.cpu.dcache.tags.age_task_id_blocks_1024::1          396                       # Occupied blocks per task id
system.cpu.dcache.tags.age_task_id_blocks_1024::2          451                       # Occupied blocks per task id
system.cpu.dcache.tags.age_task_id_blocks_1024::3           11                       # Occupied blocks per task id
system.cpu.dcache.tags.age_task_id_blocks_1024::4          621                       # Occupied blocks per task id
system.cpu.dcache.tags.occ_task_id_percent::1022     0.211914                       # Percentage of cache occupancy per task id
system.cpu.dcache.tags.occ_task_id_percent::1024     0.788086                       # Percentage of cache occupancy per task id
system.cpu.dcache.tags.tag_accesses          83888438                       # Number of tag accesses
system.cpu.dcache.tags.data_accesses         83888438                       # Number of data accesses

---------- End Simulation Statistics   ----------
