
---------- Begin Simulation Statistics ----------
final_tick                                 1090743500                       # Number of ticks from beginning of simulation (restored from checkpoints and never reset)
host_inst_rate                                 456885                       # Simulator instruction rate (inst/s)
host_mem_usage                                8513068                       # Number of bytes of host memory used
host_op_rate                                   491456                       # Simulator op (including micro ops) rate (op/s)
host_seconds                                    20.19                       # Real time elapsed on the host
host_tick_rate                               54034529                       # Simulator tick rate (ticks/s)
sim_freq                                 1000000000000                       # Frequency of simulated ticks
sim_insts                                     9222662                       # Number of instructions simulated
sim_ops                                       9920543                       # Number of ops (including micro ops) simulated
sim_seconds                                  0.001091                       # Number of seconds simulated
sim_ticks                                  1090743500                       # Number of ticks simulated
system.cpu0.branchPred.BTBCorrect                   0                       # Number of correct BTB predictions (this stat may not work properly.
system.cpu0.branchPred.BTBHitPct            98.385511                       # BTB Hit Percentage
system.cpu0.branchPred.BTBHits                 194091                       # Number of BTB hits
system.cpu0.branchPred.BTBLookups              197276                       # Number of BTB lookups
system.cpu0.branchPred.RASInCorrect                 9                       # Number of incorrect RAS predictions.
system.cpu0.branchPred.condIncorrect             8962                       # Number of conditional branches incorrect
system.cpu0.branchPred.condPredicted           380768                       # Number of conditional branches predicted
system.cpu0.branchPred.indirectHits               321                       # Number of indirect target hits.
system.cpu0.branchPred.indirectLookups            812                       # Number of indirect predictor lookups.
system.cpu0.branchPred.indirectMisses             491                       # Number of indirect misses.
system.cpu0.branchPred.lookups                 400375                       # Number of BP lookups
system.cpu0.branchPred.usedRAS                   7649                       # Number of times the RAS was used to get a target.
system.cpu0.branchPredindirectMispredicted          170                       # Number of mispredicted indirect branches.
system.cpu0.cc_regfile_reads                  1052571                       # number of cc regfile reads
system.cpu0.cc_regfile_writes                 1053346                       # number of cc regfile writes
system.cpu0.commit.amos                          1487                       # Number of atomic instructions committed
system.cpu0.commit.branchMispredicts             8311                       # The number of times a branch was mispredicted
system.cpu0.commit.branches                    368963                       # Number of branches committed
system.cpu0.commit.bw_lim_events               134023                       # number cycles where commit BW limit reached
system.cpu0.commit.commitNonSpecStalls           3960                       # The number of times commit has been forced to stall to communicate backwards
system.cpu0.commit.commitSquashedInsts          49084                       # The number of squashed insts skipped by commit
system.cpu0.commit.committedInsts             2198406                       # Number of instructions committed
system.cpu0.commit.committedOps               2381929                       # Number of ops (including micro ops) committed
system.cpu0.commit.committed_per_cycle::samples      1996341                       # Number of insts commited each cycle
system.cpu0.commit.committed_per_cycle::mean     1.193147                       # Number of insts commited each cycle
system.cpu0.commit.committed_per_cycle::stdev     2.227481                       # Number of insts commited each cycle
system.cpu0.commit.committed_per_cycle::underflows            0      0.00%      0.00% # Number of insts commited each cycle
system.cpu0.commit.committed_per_cycle::0      1225823     61.40%     61.40% # Number of insts commited each cycle
system.cpu0.commit.committed_per_cycle::1       354312     17.75%     79.15% # Number of insts commited each cycle
system.cpu0.commit.committed_per_cycle::2       112316      5.63%     84.78% # Number of insts commited each cycle
system.cpu0.commit.committed_per_cycle::3        43056      2.16%     86.93% # Number of insts commited each cycle
system.cpu0.commit.committed_per_cycle::4        76211      3.82%     90.75% # Number of insts commited each cycle
system.cpu0.commit.committed_per_cycle::5        13095      0.66%     91.41% # Number of insts commited each cycle
system.cpu0.commit.committed_per_cycle::6        31221      1.56%     92.97% # Number of insts commited each cycle
system.cpu0.commit.committed_per_cycle::7         6284      0.31%     93.29% # Number of insts commited each cycle
system.cpu0.commit.committed_per_cycle::8       134023      6.71%    100.00% # Number of insts commited each cycle
system.cpu0.commit.committed_per_cycle::overflows            0      0.00%    100.00% # Number of insts commited each cycle
system.cpu0.commit.committed_per_cycle::min_value            0                       # Number of insts commited each cycle
system.cpu0.commit.committed_per_cycle::max_value            8                       # Number of insts commited each cycle
system.cpu0.commit.committed_per_cycle::total      1996341                       # Number of insts commited each cycle
system.cpu0.commit.fp_insts                         0                       # Number of committed floating point instructions.
system.cpu0.commit.function_calls                4113                       # Number of function calls committed.
system.cpu0.commit.int_insts                  2022615                       # Number of committed integer instructions.
system.cpu0.commit.loads                       362461                       # Number of loads committed
system.cpu0.commit.membars                       1567                       # Number of memory barriers committed
system.cpu0.commit.op_class_0::No_OpClass         1566      0.07%      0.07% # Class of committed instruction
system.cpu0.commit.op_class_0::IntAlu         1479893     62.13%     62.20% # Class of committed instruction
system.cpu0.commit.op_class_0::IntMult           6542      0.27%     62.47% # Class of committed instruction
system.cpu0.commit.op_class_0::IntDiv              27      0.00%     62.47% # Class of committed instruction
system.cpu0.commit.op_class_0::FloatAdd           394      0.02%     62.49% # Class of committed instruction
system.cpu0.commit.op_class_0::FloatCmp            22      0.00%     62.49% # Class of committed instruction
system.cpu0.commit.op_class_0::FloatCvt           395      0.02%     62.51% # Class of committed instruction
system.cpu0.commit.op_class_0::FloatMult            0      0.00%     62.51% # Class of committed instruction
system.cpu0.commit.op_class_0::FloatMultAcc         3200      0.13%     62.64% # Class of committed instruction
system.cpu0.commit.op_class_0::FloatDiv           396      0.02%     62.66% # Class of committed instruction
system.cpu0.commit.op_class_0::FloatMisc           38      0.00%     62.66% # Class of committed instruction
system.cpu0.commit.op_class_0::FloatSqrt            0      0.00%     62.66% # Class of committed instruction
system.cpu0.commit.op_class_0::SimdAdd            117      0.00%     62.66% # Class of committed instruction
system.cpu0.commit.op_class_0::SimdAddAcc            0      0.00%     62.66% # Class of committed instruction
system.cpu0.commit.op_class_0::SimdAlu           5362      0.23%     62.89% # Class of committed instruction
system.cpu0.commit.op_class_0::SimdCmp            218      0.01%     62.90% # Class of committed instruction
system.cpu0.commit.op_class_0::SimdCvt              0      0.00%     62.90% # Class of committed instruction
system.cpu0.commit.op_class_0::SimdMisc           220      0.01%     62.91% # Class of committed instruction
system.cpu0.commit.op_class_0::SimdMult             0      0.00%     62.91% # Class of committed instruction
system.cpu0.commit.op_class_0::SimdMultAcc            0      0.00%     62.91% # Class of committed instruction
system.cpu0.commit.op_class_0::SimdShift            0      0.00%     62.91% # Class of committed instruction
system.cpu0.commit.op_class_0::SimdShiftAcc            0      0.00%     62.91% # Class of committed instruction
system.cpu0.commit.op_class_0::SimdDiv              0      0.00%     62.91% # Class of committed instruction
system.cpu0.commit.op_class_0::SimdSqrt             0      0.00%     62.91% # Class of committed instruction
system.cpu0.commit.op_class_0::SimdFloatAdd            0      0.00%     62.91% # Class of committed instruction
system.cpu0.commit.op_class_0::SimdFloatAlu            0      0.00%     62.91% # Class of committed instruction
system.cpu0.commit.op_class_0::SimdFloatCmp            0      0.00%     62.91% # Class of committed instruction
system.cpu0.commit.op_class_0::SimdFloatCvt            0      0.00%     62.91% # Class of committed instruction
system.cpu0.commit.op_class_0::SimdFloatDiv            0      0.00%     62.91% # Class of committed instruction
system.cpu0.commit.op_class_0::SimdFloatMisc            0      0.00%     62.91% # Class of committed instruction
system.cpu0.commit.op_class_0::SimdFloatMult            0      0.00%     62.91% # Class of committed instruction
system.cpu0.commit.op_class_0::SimdFloatMultAcc         3200      0.13%     63.04% # Class of committed instruction
system.cpu0.commit.op_class_0::SimdFloatSqrt            0      0.00%     63.04% # Class of committed instruction
system.cpu0.commit.op_class_0::SimdReduceAdd            0      0.00%     63.04% # Class of committed instruction
system.cpu0.commit.op_class_0::SimdReduceAlu            0      0.00%     63.04% # Class of committed instruction
system.cpu0.commit.op_class_0::SimdReduceCmp            0      0.00%     63.04% # Class of committed instruction
system.cpu0.commit.op_class_0::SimdFloatReduceAdd            0      0.00%     63.04% # Class of committed instruction
system.cpu0.commit.op_class_0::SimdFloatReduceCmp            0      0.00%     63.04% # Class of committed instruction
system.cpu0.commit.op_class_0::SimdAes              0      0.00%     63.04% # Class of committed instruction
system.cpu0.commit.op_class_0::SimdAesMix            0      0.00%     63.04% # Class of committed instruction
system.cpu0.commit.op_class_0::SimdSha1Hash            0      0.00%     63.04% # Class of committed instruction
system.cpu0.commit.op_class_0::SimdSha1Hash2            0      0.00%     63.04% # Class of committed instruction
system.cpu0.commit.op_class_0::SimdSha256Hash            0      0.00%     63.04% # Class of committed instruction
system.cpu0.commit.op_class_0::SimdSha256Hash2            0      0.00%     63.04% # Class of committed instruction
system.cpu0.commit.op_class_0::SimdShaSigma2            0      0.00%     63.04% # Class of committed instruction
system.cpu0.commit.op_class_0::SimdShaSigma3            0      0.00%     63.04% # Class of committed instruction
system.cpu0.commit.op_class_0::SimdPredAlu            0      0.00%     63.04% # Class of committed instruction
system.cpu0.commit.op_class_0::MemRead         362461     15.22%     78.26% # Class of committed instruction
system.cpu0.commit.op_class_0::MemWrite        517878     21.74%    100.00% # Class of committed instruction
system.cpu0.commit.op_class_0::FloatMemRead            0      0.00%    100.00% # Class of committed instruction
system.cpu0.commit.op_class_0::FloatMemWrite            0      0.00%    100.00% # Class of committed instruction
system.cpu0.commit.op_class_0::IprAccess            0      0.00%    100.00% # Class of committed instruction
system.cpu0.commit.op_class_0::InstPrefetch            0      0.00%    100.00% # Class of committed instruction
system.cpu0.commit.op_class_0::total          2381929                       # Class of committed instruction
system.cpu0.commit.refs                        880339                       # Number of memory references committed
system.cpu0.commit.swp_count                        0                       # Number of s/w prefetches committed
system.cpu0.commit.vec_insts                   847009                       # Number of committed Vector instructions.
system.cpu0.committedInsts                    2197666                       # Number of Instructions Simulated
system.cpu0.committedOps                      2381189                       # Number of Ops (including micro ops) Simulated
system.cpu0.cpi                              0.973960                       # CPI: Cycles Per Instruction
system.cpu0.cpi_total                        0.973960                       # CPI: Total CPI of All Threads
system.cpu0.decode.BlockedCycles               276055                       # Number of cycles decode is blocked
system.cpu0.decode.BranchMispred                  689                       # Number of times decode detected a branch misprediction
system.cpu0.decode.BranchResolved              186541                       # Number of times decode resolved a branch
system.cpu0.decode.DecodedInsts               2480004                       # Number of instructions handled by decode
system.cpu0.decode.IdleCycles                  597038                       # Number of cycles decode is idle
system.cpu0.decode.RunCycles                  1104898                       # Number of cycles decode is running
system.cpu0.decode.SquashCycles                  9282                       # Number of cycles decode is squashing
system.cpu0.decode.SquashedInsts                27561                       # Number of squashed instructions handled by decode
system.cpu0.decode.UnblockCycles                20675                       # Number of cycles decode is unblocking
system.cpu0.dtb.accesses                            0                       # DTB accesses
system.cpu0.dtb.align_faults                        0                       # Number of TLB faults due to alignment restrictions
system.cpu0.dtb.domain_faults                       0                       # Number of TLB faults due to domain restrictions
system.cpu0.dtb.flush_entries                       0                       # Number of entries that have been flushed from TLB
system.cpu0.dtb.flush_tlb                           0                       # Number of times complete TLB was flushed
system.cpu0.dtb.flush_tlb_asid                      0                       # Number of times TLB was flushed by ASID
system.cpu0.dtb.flush_tlb_mva                       0                       # Number of times TLB was flushed by MVA
system.cpu0.dtb.flush_tlb_mva_asid                  0                       # Number of times TLB was flushed by MVA & ASID
system.cpu0.dtb.hits                                0                       # DTB hits
system.cpu0.dtb.inst_accesses                       0                       # ITB inst accesses
system.cpu0.dtb.inst_hits                           0                       # ITB inst hits
system.cpu0.dtb.inst_misses                         0                       # ITB inst misses
system.cpu0.dtb.misses                              0                       # DTB misses
system.cpu0.dtb.perms_faults                        0                       # Number of TLB faults due to permissions restrictions
system.cpu0.dtb.prefetch_faults                     0                       # Number of TLB faults due to prefetch
system.cpu0.dtb.read_accesses                       0                       # DTB read accesses
system.cpu0.dtb.read_hits                           0                       # DTB read hits
system.cpu0.dtb.read_misses                         0                       # DTB read misses
system.cpu0.dtb.stage2_mmu.stage2_tlb.accesses            0                       # DTB accesses
system.cpu0.dtb.stage2_mmu.stage2_tlb.align_faults            0                       # Number of TLB faults due to alignment restrictions
system.cpu0.dtb.stage2_mmu.stage2_tlb.domain_faults            0                       # Number of TLB faults due to domain restrictions
system.cpu0.dtb.stage2_mmu.stage2_tlb.flush_entries            0                       # Number of entries that have been flushed from TLB
system.cpu0.dtb.stage2_mmu.stage2_tlb.flush_tlb            0                       # Number of times complete TLB was flushed
system.cpu0.dtb.stage2_mmu.stage2_tlb.flush_tlb_asid            0                       # Number of times TLB was flushed by ASID
system.cpu0.dtb.stage2_mmu.stage2_tlb.flush_tlb_mva            0                       # Number of times TLB was flushed by MVA
system.cpu0.dtb.stage2_mmu.stage2_tlb.flush_tlb_mva_asid            0                       # Number of times TLB was flushed by MVA & ASID
system.cpu0.dtb.stage2_mmu.stage2_tlb.hits            0                       # DTB hits
system.cpu0.dtb.stage2_mmu.stage2_tlb.inst_accesses            0                       # ITB inst accesses
system.cpu0.dtb.stage2_mmu.stage2_tlb.inst_hits            0                       # ITB inst hits
system.cpu0.dtb.stage2_mmu.stage2_tlb.inst_misses            0                       # ITB inst misses
system.cpu0.dtb.stage2_mmu.stage2_tlb.misses            0                       # DTB misses
system.cpu0.dtb.stage2_mmu.stage2_tlb.perms_faults            0                       # Number of TLB faults due to permissions restrictions
system.cpu0.dtb.stage2_mmu.stage2_tlb.prefetch_faults            0                       # Number of TLB faults due to prefetch
system.cpu0.dtb.stage2_mmu.stage2_tlb.read_accesses            0                       # DTB read accesses
system.cpu0.dtb.stage2_mmu.stage2_tlb.read_hits            0                       # DTB read hits
system.cpu0.dtb.stage2_mmu.stage2_tlb.read_misses            0                       # DTB read misses
system.cpu0.dtb.stage2_mmu.stage2_tlb.walker.walkRequestOrigin_Requested::Data            0                       # Table walker requests started/completed, data/inst
system.cpu0.dtb.stage2_mmu.stage2_tlb.walker.walkRequestOrigin_Requested::Inst            0                       # Table walker requests started/completed, data/inst
system.cpu0.dtb.stage2_mmu.stage2_tlb.walker.walkRequestOrigin_Requested::total            0                       # Table walker requests started/completed, data/inst
system.cpu0.dtb.stage2_mmu.stage2_tlb.walker.walkRequestOrigin_Completed::Data            0                       # Table walker requests started/completed, data/inst
system.cpu0.dtb.stage2_mmu.stage2_tlb.walker.walkRequestOrigin_Completed::Inst            0                       # Table walker requests started/completed, data/inst
system.cpu0.dtb.stage2_mmu.stage2_tlb.walker.walkRequestOrigin_Completed::total            0                       # Table walker requests started/completed, data/inst
system.cpu0.dtb.stage2_mmu.stage2_tlb.walker.walkRequestOrigin::total            0                       # Table walker requests started/completed, data/inst
system.cpu0.dtb.stage2_mmu.stage2_tlb.walker.walks            0                       # Table walker walks requested
system.cpu0.dtb.stage2_mmu.stage2_tlb.write_accesses            0                       # DTB write accesses
system.cpu0.dtb.stage2_mmu.stage2_tlb.write_hits            0                       # DTB write hits
system.cpu0.dtb.stage2_mmu.stage2_tlb.write_misses            0                       # DTB write misses
system.cpu0.dtb.walker.walkRequestOrigin_Requested::Data            0                       # Table walker requests started/completed, data/inst
system.cpu0.dtb.walker.walkRequestOrigin_Requested::Inst            0                       # Table walker requests started/completed, data/inst
system.cpu0.dtb.walker.walkRequestOrigin_Requested::total            0                       # Table walker requests started/completed, data/inst
system.cpu0.dtb.walker.walkRequestOrigin_Completed::Data            0                       # Table walker requests started/completed, data/inst
system.cpu0.dtb.walker.walkRequestOrigin_Completed::Inst            0                       # Table walker requests started/completed, data/inst
system.cpu0.dtb.walker.walkRequestOrigin_Completed::total            0                       # Table walker requests started/completed, data/inst
system.cpu0.dtb.walker.walkRequestOrigin::total            0                       # Table walker requests started/completed, data/inst
system.cpu0.dtb.walker.walks                        0                       # Table walker walks requested
system.cpu0.dtb.write_accesses                      0                       # DTB write accesses
system.cpu0.dtb.write_hits                          0                       # DTB write hits
system.cpu0.dtb.write_misses                        0                       # DTB write misses
system.cpu0.fetch.Branches                     400375                       # Number of branches that fetch encountered
system.cpu0.fetch.CacheLines                   621300                       # Number of cache lines fetched
system.cpu0.fetch.Cycles                      1325021                       # Number of cycles fetch has run and was not squashing or blocked
system.cpu0.fetch.IcacheSquashes                 6307                       # Number of outstanding Icache misses that were squashed
system.cpu0.fetch.Insts                       2360496                       # Number of instructions fetch has processed
system.cpu0.fetch.SquashCycles                  19866                       # Number of cycles fetch has spent squashing
system.cpu0.fetch.branchRate                 0.187053                       # Number of branch fetches per cycle
system.cpu0.fetch.icacheStallCycles            672994                       # Number of cycles fetch is stalled on an Icache miss
system.cpu0.fetch.predictedBranches            202061                       # Number of branches that fetch has predicted taken
system.cpu0.fetch.rate                       1.102809                       # Number of inst fetches per cycle
system.cpu0.fetch.rateDist::samples           2007948                       # Number of instructions fetched each cycle (Total)
system.cpu0.fetch.rateDist::mean             1.275614                       # Number of instructions fetched each cycle (Total)
system.cpu0.fetch.rateDist::stdev            1.264432                       # Number of instructions fetched each cycle (Total)
system.cpu0.fetch.rateDist::underflows              0      0.00%      0.00% # Number of instructions fetched each cycle (Total)
system.cpu0.fetch.rateDist::0                  817624     40.72%     40.72% # Number of instructions fetched each cycle (Total)
system.cpu0.fetch.rateDist::1                  406356     20.24%     60.96% # Number of instructions fetched each cycle (Total)
system.cpu0.fetch.rateDist::2                  196894      9.81%     70.76% # Number of instructions fetched each cycle (Total)
system.cpu0.fetch.rateDist::3                  587074     29.24%    100.00% # Number of instructions fetched each cycle (Total)
system.cpu0.fetch.rateDist::overflows               0      0.00%    100.00% # Number of instructions fetched each cycle (Total)
system.cpu0.fetch.rateDist::min_value               0                       # Number of instructions fetched each cycle (Total)
system.cpu0.fetch.rateDist::max_value               3                       # Number of instructions fetched each cycle (Total)
system.cpu0.fetch.rateDist::total             2007948                       # Number of instructions fetched each cycle (Total)
system.cpu0.idleCycles                         132491                       # Total number of cycles that the CPU has spent unscheduled due to idling
system.cpu0.iew.branchMispredicts                8590                       # Number of branch mispredicts detected at execute
system.cpu0.iew.exec_branches                  372869                       # Number of branches executed
system.cpu0.iew.exec_nop                          783                       # number of nop insts executed
system.cpu0.iew.exec_rate                    1.127723                       # Inst execution rate
system.cpu0.iew.exec_refs                      887407                       # number of memory reference insts executed
system.cpu0.iew.exec_stores                    519468                       # Number of stores executed
system.cpu0.iew.exec_swp                            0                       # number of swp insts executed
system.cpu0.iew.iewBlockCycles                   2325                       # Number of cycles IEW is blocking
system.cpu0.iew.iewDispLoadInsts               373225                       # Number of dispatched load instructions
system.cpu0.iew.iewDispNonSpecInsts              4675                       # Number of dispatched non-speculative instructions
system.cpu0.iew.iewDispSquashedInsts                0                       # Number of squashed instructions skipped by dispatch
system.cpu0.iew.iewDispStoreInsts              522080                       # Number of dispatched store instructions
system.cpu0.iew.iewDispatchedInsts            2443809                       # Number of instructions dispatched to IQ
system.cpu0.iew.iewExecLoadInsts               367939                       # Number of load instructions executed
system.cpu0.iew.iewExecSquashedInsts            14315                       # Number of squashed instructions skipped in execute
system.cpu0.iew.iewExecutedInsts              2413823                       # Number of executed instructions
system.cpu0.iew.iewIQFullEvents                     0                       # Number of times the IQ has become full, causing a stall
system.cpu0.iew.iewIdleCycles                       0                       # Number of cycles IEW is idle
system.cpu0.iew.iewLSQFullEvents                 5453                       # Number of times the LSQ has become full, causing a stall
system.cpu0.iew.iewSquashCycles                  9282                       # Number of cycles IEW is squashing
system.cpu0.iew.iewUnblockCycles                 5451                       # Number of cycles IEW is unblocking
system.cpu0.iew.lsq.thread0.blockedLoads            0                       # Number of blocked loads due to partial load-store forwarding
system.cpu0.iew.lsq.thread0.cacheBlocked          549                       # Number of times an access to memory failed due to the cache being blocked
system.cpu0.iew.lsq.thread0.forwLoads             324                       # Number of loads that had data forwarded from stores
system.cpu0.iew.lsq.thread0.ignoredResponses            3                       # Number of memory responses ignored because the instruction is squashed
system.cpu0.iew.lsq.thread0.invAddrLoads            0                       # Number of loads ignored due to an invalid address
system.cpu0.iew.lsq.thread0.invAddrSwpfs            0                       # Number of software prefetches ignored due to an invalid address
system.cpu0.iew.lsq.thread0.memOrderViolation           49                       # Number of memory ordering violations
system.cpu0.iew.lsq.thread0.rescheduledLoads          532                       # Number of loads that were rescheduled
system.cpu0.iew.lsq.thread0.squashedLoads        10764                       # Number of loads squashed
system.cpu0.iew.lsq.thread0.squashedStores         4202                       # Number of stores squashed
system.cpu0.iew.memOrderViolationEvents            49                       # Number of memory order violations
system.cpu0.iew.predictedNotTakenIncorrect         2382                       # Number of branches that were predicted not taken incorrectly
system.cpu0.iew.predictedTakenIncorrect          6208                       # Number of branches that were predicted taken incorrectly
system.cpu0.iew.wb_consumers                  2154152                       # num instructions consuming a value
system.cpu0.iew.wb_count                      2409749                       # cumulative count of insts written-back
system.cpu0.iew.wb_fanout                    0.585191                       # average fanout of values written-back
system.cpu0.iew.wb_producers                  1260590                       # num instructions producing a value
system.cpu0.iew.wb_rate                      1.125820                       # insts written-back per cycle
system.cpu0.iew.wb_sent                       2411068                       # cumulative count of insts sent to commit
system.cpu0.int_regfile_reads                 3115108                       # number of integer regfile reads
system.cpu0.int_regfile_writes                1179809                       # number of integer regfile writes
system.cpu0.ipc                              1.026736                       # IPC: Instructions Per Cycle
system.cpu0.ipc_total                        1.026736                       # IPC: Total IPC of All Threads
system.cpu0.iq.FU_type_0::No_OpClass             1574      0.06%      0.06% # Type of FU issued
system.cpu0.iq.FU_type_0::IntAlu              1516810     62.47%     62.53% # Type of FU issued
system.cpu0.iq.FU_type_0::IntMult                6591      0.27%     62.80% # Type of FU issued
system.cpu0.iq.FU_type_0::IntDiv                   29      0.00%     62.81% # Type of FU issued
system.cpu0.iq.FU_type_0::FloatAdd                394      0.02%     62.82% # Type of FU issued
system.cpu0.iq.FU_type_0::FloatCmp                 22      0.00%     62.82% # Type of FU issued
system.cpu0.iq.FU_type_0::FloatCvt                409      0.02%     62.84% # Type of FU issued
system.cpu0.iq.FU_type_0::FloatMult                 0      0.00%     62.84% # Type of FU issued
system.cpu0.iq.FU_type_0::FloatMultAcc           3202      0.13%     62.97% # Type of FU issued
system.cpu0.iq.FU_type_0::FloatDiv                405      0.02%     62.99% # Type of FU issued
system.cpu0.iq.FU_type_0::FloatMisc                38      0.00%     62.99% # Type of FU issued
system.cpu0.iq.FU_type_0::FloatSqrt                 0      0.00%     62.99% # Type of FU issued
system.cpu0.iq.FU_type_0::SimdAdd                 124      0.01%     62.99% # Type of FU issued
system.cpu0.iq.FU_type_0::SimdAddAcc                0      0.00%     62.99% # Type of FU issued
system.cpu0.iq.FU_type_0::SimdAlu                5427      0.22%     63.22% # Type of FU issued
system.cpu0.iq.FU_type_0::SimdCmp                 250      0.01%     63.23% # Type of FU issued
system.cpu0.iq.FU_type_0::SimdCvt                   0      0.00%     63.23% # Type of FU issued
system.cpu0.iq.FU_type_0::SimdMisc                242      0.01%     63.24% # Type of FU issued
system.cpu0.iq.FU_type_0::SimdMult                  0      0.00%     63.24% # Type of FU issued
system.cpu0.iq.FU_type_0::SimdMultAcc               0      0.00%     63.24% # Type of FU issued
system.cpu0.iq.FU_type_0::SimdShift                 0      0.00%     63.24% # Type of FU issued
system.cpu0.iq.FU_type_0::SimdShiftAcc              0      0.00%     63.24% # Type of FU issued
system.cpu0.iq.FU_type_0::SimdDiv                   0      0.00%     63.24% # Type of FU issued
system.cpu0.iq.FU_type_0::SimdSqrt                  0      0.00%     63.24% # Type of FU issued
system.cpu0.iq.FU_type_0::SimdFloatAdd              0      0.00%     63.24% # Type of FU issued
system.cpu0.iq.FU_type_0::SimdFloatAlu              0      0.00%     63.24% # Type of FU issued
system.cpu0.iq.FU_type_0::SimdFloatCmp              0      0.00%     63.24% # Type of FU issued
system.cpu0.iq.FU_type_0::SimdFloatCvt              0      0.00%     63.24% # Type of FU issued
system.cpu0.iq.FU_type_0::SimdFloatDiv              0      0.00%     63.24% # Type of FU issued
system.cpu0.iq.FU_type_0::SimdFloatMisc             0      0.00%     63.24% # Type of FU issued
system.cpu0.iq.FU_type_0::SimdFloatMult             0      0.00%     63.24% # Type of FU issued
system.cpu0.iq.FU_type_0::SimdFloatMultAcc         3200      0.13%     63.37% # Type of FU issued
system.cpu0.iq.FU_type_0::SimdFloatSqrt             0      0.00%     63.37% # Type of FU issued
system.cpu0.iq.FU_type_0::SimdReduceAdd             0      0.00%     63.37% # Type of FU issued
system.cpu0.iq.FU_type_0::SimdReduceAlu             0      0.00%     63.37% # Type of FU issued
system.cpu0.iq.FU_type_0::SimdReduceCmp             0      0.00%     63.37% # Type of FU issued
system.cpu0.iq.FU_type_0::SimdFloatReduceAdd            0      0.00%     63.37% # Type of FU issued
system.cpu0.iq.FU_type_0::SimdFloatReduceCmp            0      0.00%     63.37% # Type of FU issued
system.cpu0.iq.FU_type_0::SimdAes                   0      0.00%     63.37% # Type of FU issued
system.cpu0.iq.FU_type_0::SimdAesMix                0      0.00%     63.37% # Type of FU issued
system.cpu0.iq.FU_type_0::SimdSha1Hash              0      0.00%     63.37% # Type of FU issued
system.cpu0.iq.FU_type_0::SimdSha1Hash2             0      0.00%     63.37% # Type of FU issued
system.cpu0.iq.FU_type_0::SimdSha256Hash            0      0.00%     63.37% # Type of FU issued
system.cpu0.iq.FU_type_0::SimdSha256Hash2            0      0.00%     63.37% # Type of FU issued
system.cpu0.iq.FU_type_0::SimdShaSigma2             0      0.00%     63.37% # Type of FU issued
system.cpu0.iq.FU_type_0::SimdShaSigma3             0      0.00%     63.37% # Type of FU issued
system.cpu0.iq.FU_type_0::SimdPredAlu               0      0.00%     63.37% # Type of FU issued
system.cpu0.iq.FU_type_0::MemRead              369587     15.22%     78.59% # Type of FU issued
system.cpu0.iq.FU_type_0::MemWrite             519834     21.41%    100.00% # Type of FU issued
system.cpu0.iq.FU_type_0::FloatMemRead              0      0.00%    100.00% # Type of FU issued
system.cpu0.iq.FU_type_0::FloatMemWrite             0      0.00%    100.00% # Type of FU issued
system.cpu0.iq.FU_type_0::IprAccess                 0      0.00%    100.00% # Type of FU issued
system.cpu0.iq.FU_type_0::InstPrefetch              0      0.00%    100.00% # Type of FU issued
system.cpu0.iq.FU_type_0::total               2428138                       # Type of FU issued
system.cpu0.iq.fp_alu_accesses                      0                       # Number of floating point alu accesses
system.cpu0.iq.fp_inst_queue_reads                  0                       # Number of floating instruction queue reads
system.cpu0.iq.fp_inst_queue_wakeup_accesses            0                       # Number of floating instruction queue wakeup accesses
system.cpu0.iq.fp_inst_queue_writes                 0                       # Number of floating instruction queue writes
system.cpu0.iq.fu_busy_cnt                     395039                       # FU busy when requested
system.cpu0.iq.fu_busy_rate                  0.162692                       # FU busy rate (busy events/executed inst)
system.cpu0.iq.fu_full::No_OpClass                  0      0.00%      0.00% # attempts to use FU when none available
system.cpu0.iq.fu_full::IntAlu                  29515      7.47%      7.47% # attempts to use FU when none available
system.cpu0.iq.fu_full::IntMult                   272      0.07%      7.54% # attempts to use FU when none available
system.cpu0.iq.fu_full::IntDiv                      0      0.00%      7.54% # attempts to use FU when none available
system.cpu0.iq.fu_full::FloatAdd                    0      0.00%      7.54% # attempts to use FU when none available
system.cpu0.iq.fu_full::FloatCmp                    0      0.00%      7.54% # attempts to use FU when none available
system.cpu0.iq.fu_full::FloatCvt                    0      0.00%      7.54% # attempts to use FU when none available
system.cpu0.iq.fu_full::FloatMult                   0      0.00%      7.54% # attempts to use FU when none available
system.cpu0.iq.fu_full::FloatMultAcc                0      0.00%      7.54% # attempts to use FU when none available
system.cpu0.iq.fu_full::FloatDiv                    0      0.00%      7.54% # attempts to use FU when none available
system.cpu0.iq.fu_full::FloatMisc                   0      0.00%      7.54% # attempts to use FU when none available
system.cpu0.iq.fu_full::FloatSqrt                   0      0.00%      7.54% # attempts to use FU when none available
system.cpu0.iq.fu_full::SimdAdd                     0      0.00%      7.54% # attempts to use FU when none available
system.cpu0.iq.fu_full::SimdAddAcc                  0      0.00%      7.54% # attempts to use FU when none available
system.cpu0.iq.fu_full::SimdAlu                     0      0.00%      7.54% # attempts to use FU when none available
system.cpu0.iq.fu_full::SimdCmp                    69      0.02%      7.56% # attempts to use FU when none available
system.cpu0.iq.fu_full::SimdCvt                     0      0.00%      7.56% # attempts to use FU when none available
system.cpu0.iq.fu_full::SimdMisc                    0      0.00%      7.56% # attempts to use FU when none available
system.cpu0.iq.fu_full::SimdMult                    0      0.00%      7.56% # attempts to use FU when none available
system.cpu0.iq.fu_full::SimdMultAcc                 0      0.00%      7.56% # attempts to use FU when none available
system.cpu0.iq.fu_full::SimdShift                   0      0.00%      7.56% # attempts to use FU when none available
system.cpu0.iq.fu_full::SimdShiftAcc                0      0.00%      7.56% # attempts to use FU when none available
system.cpu0.iq.fu_full::SimdDiv                     0      0.00%      7.56% # attempts to use FU when none available
system.cpu0.iq.fu_full::SimdSqrt                    0      0.00%      7.56% # attempts to use FU when none available
system.cpu0.iq.fu_full::SimdFloatAdd                0      0.00%      7.56% # attempts to use FU when none available
system.cpu0.iq.fu_full::SimdFloatAlu                0      0.00%      7.56% # attempts to use FU when none available
system.cpu0.iq.fu_full::SimdFloatCmp                0      0.00%      7.56% # attempts to use FU when none available
system.cpu0.iq.fu_full::SimdFloatCvt                0      0.00%      7.56% # attempts to use FU when none available
system.cpu0.iq.fu_full::SimdFloatDiv                0      0.00%      7.56% # attempts to use FU when none available
system.cpu0.iq.fu_full::SimdFloatMisc               0      0.00%      7.56% # attempts to use FU when none available
system.cpu0.iq.fu_full::SimdFloatMult               0      0.00%      7.56% # attempts to use FU when none available
system.cpu0.iq.fu_full::SimdFloatMultAcc            0      0.00%      7.56% # attempts to use FU when none available
system.cpu0.iq.fu_full::SimdFloatSqrt               0      0.00%      7.56% # attempts to use FU when none available
system.cpu0.iq.fu_full::SimdReduceAdd               0      0.00%      7.56% # attempts to use FU when none available
system.cpu0.iq.fu_full::SimdReduceAlu               0      0.00%      7.56% # attempts to use FU when none available
system.cpu0.iq.fu_full::SimdReduceCmp               0      0.00%      7.56% # attempts to use FU when none available
system.cpu0.iq.fu_full::SimdFloatReduceAdd            0      0.00%      7.56% # attempts to use FU when none available
system.cpu0.iq.fu_full::SimdFloatReduceCmp            0      0.00%      7.56% # attempts to use FU when none available
system.cpu0.iq.fu_full::SimdAes                     0      0.00%      7.56% # attempts to use FU when none available
system.cpu0.iq.fu_full::SimdAesMix                  0      0.00%      7.56% # attempts to use FU when none available
system.cpu0.iq.fu_full::SimdSha1Hash                0      0.00%      7.56% # attempts to use FU when none available
system.cpu0.iq.fu_full::SimdSha1Hash2               0      0.00%      7.56% # attempts to use FU when none available
system.cpu0.iq.fu_full::SimdSha256Hash              0      0.00%      7.56% # attempts to use FU when none available
system.cpu0.iq.fu_full::SimdSha256Hash2             0      0.00%      7.56% # attempts to use FU when none available
system.cpu0.iq.fu_full::SimdShaSigma2               0      0.00%      7.56% # attempts to use FU when none available
system.cpu0.iq.fu_full::SimdShaSigma3               0      0.00%      7.56% # attempts to use FU when none available
system.cpu0.iq.fu_full::SimdPredAlu                 0      0.00%      7.56% # attempts to use FU when none available
system.cpu0.iq.fu_full::MemRead                 13721      3.47%     11.03% # attempts to use FU when none available
system.cpu0.iq.fu_full::MemWrite               351462     88.97%    100.00% # attempts to use FU when none available
system.cpu0.iq.fu_full::FloatMemRead                0      0.00%    100.00% # attempts to use FU when none available
system.cpu0.iq.fu_full::FloatMemWrite               0      0.00%    100.00% # attempts to use FU when none available
system.cpu0.iq.fu_full::IprAccess                   0      0.00%    100.00% # attempts to use FU when none available
system.cpu0.iq.fu_full::InstPrefetch                0      0.00%    100.00% # attempts to use FU when none available
system.cpu0.iq.int_alu_accesses               1622052                       # Number of integer alu accesses
system.cpu0.iq.int_inst_queue_reads           5211692                       # Number of integer instruction queue reads
system.cpu0.iq.int_inst_queue_wakeup_accesses      1562602                       # Number of integer instruction queue wakeup accesses
system.cpu0.iq.int_inst_queue_writes          1643914                       # Number of integer instruction queue writes
system.cpu0.iq.iqInstsAdded                   2438339                       # Number of instructions added to the IQ (excludes non-spec)
system.cpu0.iq.iqInstsIssued                  2428138                       # Number of instructions issued
system.cpu0.iq.iqNonSpecInstsAdded               4687                       # Number of non-speculative instructions added to the IQ
system.cpu0.iq.iqSquashedInstsExamined          61836                       # Number of squashed instructions iterated over during squash; mainly for profiling
system.cpu0.iq.iqSquashedInstsIssued              616                       # Number of squashed instructions issued
system.cpu0.iq.iqSquashedNonSpecRemoved           727                       # Number of squashed non-spec instructions that were removed
system.cpu0.iq.iqSquashedOperandsExamined        48327                       # Number of squashed operands that are examined and possibly removed from graph
system.cpu0.iq.issued_per_cycle::samples      2007948                       # Number of insts issued each cycle
system.cpu0.iq.issued_per_cycle::mean        1.209263                       # Number of insts issued each cycle
system.cpu0.iq.issued_per_cycle::stdev       0.999500                       # Number of insts issued each cycle
system.cpu0.iq.issued_per_cycle::underflows            0      0.00%      0.00% # Number of insts issued each cycle
system.cpu0.iq.issued_per_cycle::0             612484     30.50%     30.50% # Number of insts issued each cycle
system.cpu0.iq.issued_per_cycle::1             574449     28.61%     59.11% # Number of insts issued each cycle
system.cpu0.iq.issued_per_cycle::2             621679     30.96%     90.07% # Number of insts issued each cycle
system.cpu0.iq.issued_per_cycle::3             187383      9.33%     99.40% # Number of insts issued each cycle
system.cpu0.iq.issued_per_cycle::4              11586      0.58%     99.98% # Number of insts issued each cycle
system.cpu0.iq.issued_per_cycle::5                364      0.02%    100.00% # Number of insts issued each cycle
system.cpu0.iq.issued_per_cycle::6                  3      0.00%    100.00% # Number of insts issued each cycle
system.cpu0.iq.issued_per_cycle::7                  0      0.00%    100.00% # Number of insts issued each cycle
system.cpu0.iq.issued_per_cycle::8                  0      0.00%    100.00% # Number of insts issued each cycle
system.cpu0.iq.issued_per_cycle::overflows            0      0.00%    100.00% # Number of insts issued each cycle
system.cpu0.iq.issued_per_cycle::min_value            0                       # Number of insts issued each cycle
system.cpu0.iq.issued_per_cycle::max_value            6                       # Number of insts issued each cycle
system.cpu0.iq.issued_per_cycle::total        2007948                       # Number of insts issued each cycle
system.cpu0.iq.rate                          1.134411                       # Inst issue rate
system.cpu0.iq.vec_alu_accesses               1199551                       # Number of vector alu accesses
system.cpu0.iq.vec_inst_queue_reads           2048187                       # Number of vector instruction queue reads
system.cpu0.iq.vec_inst_queue_wakeup_accesses       847147                       # Number of vector instruction queue wakeup accesses
system.cpu0.iq.vec_inst_queue_writes           860997                       # Number of vector instruction queue writes
system.cpu0.itb.accesses                            0                       # DTB accesses
system.cpu0.itb.align_faults                        0                       # Number of TLB faults due to alignment restrictions
system.cpu0.itb.domain_faults                       0                       # Number of TLB faults due to domain restrictions
system.cpu0.itb.flush_entries                       0                       # Number of entries that have been flushed from TLB
system.cpu0.itb.flush_tlb                           0                       # Number of times complete TLB was flushed
system.cpu0.itb.flush_tlb_asid                      0                       # Number of times TLB was flushed by ASID
system.cpu0.itb.flush_tlb_mva                       0                       # Number of times TLB was flushed by MVA
system.cpu0.itb.flush_tlb_mva_asid                  0                       # Number of times TLB was flushed by MVA & ASID
system.cpu0.itb.hits                                0                       # DTB hits
system.cpu0.itb.inst_accesses                       0                       # ITB inst accesses
system.cpu0.itb.inst_hits                           0                       # ITB inst hits
system.cpu0.itb.inst_misses                         0                       # ITB inst misses
system.cpu0.itb.misses                              0                       # DTB misses
system.cpu0.itb.perms_faults                        0                       # Number of TLB faults due to permissions restrictions
system.cpu0.itb.prefetch_faults                     0                       # Number of TLB faults due to prefetch
system.cpu0.itb.read_accesses                       0                       # DTB read accesses
system.cpu0.itb.read_hits                           0                       # DTB read hits
system.cpu0.itb.read_misses                         0                       # DTB read misses
system.cpu0.itb.stage2_mmu.stage2_tlb.accesses            0                       # DTB accesses
system.cpu0.itb.stage2_mmu.stage2_tlb.align_faults            0                       # Number of TLB faults due to alignment restrictions
system.cpu0.itb.stage2_mmu.stage2_tlb.domain_faults            0                       # Number of TLB faults due to domain restrictions
system.cpu0.itb.stage2_mmu.stage2_tlb.flush_entries            0                       # Number of entries that have been flushed from TLB
system.cpu0.itb.stage2_mmu.stage2_tlb.flush_tlb            0                       # Number of times complete TLB was flushed
system.cpu0.itb.stage2_mmu.stage2_tlb.flush_tlb_asid            0                       # Number of times TLB was flushed by ASID
system.cpu0.itb.stage2_mmu.stage2_tlb.flush_tlb_mva            0                       # Number of times TLB was flushed by MVA
system.cpu0.itb.stage2_mmu.stage2_tlb.flush_tlb_mva_asid            0                       # Number of times TLB was flushed by MVA & ASID
system.cpu0.itb.stage2_mmu.stage2_tlb.hits            0                       # DTB hits
system.cpu0.itb.stage2_mmu.stage2_tlb.inst_accesses            0                       # ITB inst accesses
system.cpu0.itb.stage2_mmu.stage2_tlb.inst_hits            0                       # ITB inst hits
system.cpu0.itb.stage2_mmu.stage2_tlb.inst_misses            0                       # ITB inst misses
system.cpu0.itb.stage2_mmu.stage2_tlb.misses            0                       # DTB misses
system.cpu0.itb.stage2_mmu.stage2_tlb.perms_faults            0                       # Number of TLB faults due to permissions restrictions
system.cpu0.itb.stage2_mmu.stage2_tlb.prefetch_faults            0                       # Number of TLB faults due to prefetch
system.cpu0.itb.stage2_mmu.stage2_tlb.read_accesses            0                       # DTB read accesses
system.cpu0.itb.stage2_mmu.stage2_tlb.read_hits            0                       # DTB read hits
system.cpu0.itb.stage2_mmu.stage2_tlb.read_misses            0                       # DTB read misses
system.cpu0.itb.stage2_mmu.stage2_tlb.walker.walkRequestOrigin_Requested::Data            0                       # Table walker requests started/completed, data/inst
system.cpu0.itb.stage2_mmu.stage2_tlb.walker.walkRequestOrigin_Requested::Inst            0                       # Table walker requests started/completed, data/inst
system.cpu0.itb.stage2_mmu.stage2_tlb.walker.walkRequestOrigin_Requested::total            0                       # Table walker requests started/completed, data/inst
system.cpu0.itb.stage2_mmu.stage2_tlb.walker.walkRequestOrigin_Completed::Data            0                       # Table walker requests started/completed, data/inst
system.cpu0.itb.stage2_mmu.stage2_tlb.walker.walkRequestOrigin_Completed::Inst            0                       # Table walker requests started/completed, data/inst
system.cpu0.itb.stage2_mmu.stage2_tlb.walker.walkRequestOrigin_Completed::total            0                       # Table walker requests started/completed, data/inst
system.cpu0.itb.stage2_mmu.stage2_tlb.walker.walkRequestOrigin::total            0                       # Table walker requests started/completed, data/inst
system.cpu0.itb.stage2_mmu.stage2_tlb.walker.walks            0                       # Table walker walks requested
system.cpu0.itb.stage2_mmu.stage2_tlb.write_accesses            0                       # DTB write accesses
system.cpu0.itb.stage2_mmu.stage2_tlb.write_hits            0                       # DTB write hits
system.cpu0.itb.stage2_mmu.stage2_tlb.write_misses            0                       # DTB write misses
system.cpu0.itb.walker.walkRequestOrigin_Requested::Data            0                       # Table walker requests started/completed, data/inst
system.cpu0.itb.walker.walkRequestOrigin_Requested::Inst            0                       # Table walker requests started/completed, data/inst
system.cpu0.itb.walker.walkRequestOrigin_Requested::total            0                       # Table walker requests started/completed, data/inst
system.cpu0.itb.walker.walkRequestOrigin_Completed::Data            0                       # Table walker requests started/completed, data/inst
system.cpu0.itb.walker.walkRequestOrigin_Completed::Inst            0                       # Table walker requests started/completed, data/inst
system.cpu0.itb.walker.walkRequestOrigin_Completed::total            0                       # Table walker requests started/completed, data/inst
system.cpu0.itb.walker.walkRequestOrigin::total            0                       # Table walker requests started/completed, data/inst
system.cpu0.itb.walker.walks                        0                       # Table walker walks requested
system.cpu0.itb.write_accesses                      0                       # DTB write accesses
system.cpu0.itb.write_hits                          0                       # DTB write hits
system.cpu0.itb.write_misses                        0                       # DTB write misses
system.cpu0.memDep0.conflictingLoads              629                       # Number of conflicting loads.
system.cpu0.memDep0.conflictingStores             878                       # Number of conflicting stores.
system.cpu0.memDep0.insertedLoads              373225                       # Number of loads inserted to the mem dependence unit.
system.cpu0.memDep0.insertedStores             522080                       # Number of stores inserted to the mem dependence unit.
system.cpu0.misc_regfile_reads                7074092                       # number of misc regfile reads
system.cpu0.misc_regfile_writes                 10689                       # number of misc regfile writes
system.cpu0.numCycles                         2140439                       # number of cpu cycles simulated
system.cpu0.numWorkItemsCompleted                   0                       # number of work items this cpu completed
system.cpu0.numWorkItemsStarted                     0                       # number of work items this cpu started
system.cpu0.quiesceCycles                       41049                       # Total number of cycles that CPU has spent quiesced or waiting for an interrupt
system.cpu0.rename.BlockCycles                  72555                       # Number of cycles rename is blocking
system.cpu0.rename.CommittedMaps              2724748                       # Number of HB maps that are committed
system.cpu0.rename.FullRegisterEvents              73                       # Number of times there has been no free registers
system.cpu0.rename.IdleCycles                  628151                       # Number of cycles rename is idle
system.cpu0.rename.LQFullEvents                   614                       # Number of times rename has blocked due to LQ full
system.cpu0.rename.ROBFullEvents                 6695                       # Number of times rename has blocked due to ROB full
system.cpu0.rename.RenameLookups              6462337                       # Number of register rename lookups that rename has made
system.cpu0.rename.RenamedInsts               2449500                       # Number of instructions processed by rename
system.cpu0.rename.RenamedOperands            2805566                       # Number of destination operands rename has renamed
system.cpu0.rename.RunCycles                  1092357                       # Number of cycles rename is running
system.cpu0.rename.SQFullEvents                128901                       # Number of times rename has blocked due to SQ full
system.cpu0.rename.SquashCycles                  9282                       # Number of cycles rename is squashing
system.cpu0.rename.SquashedInsts                 7738                       # Number of squashed instructions processed by rename
system.cpu0.rename.UnblockCycles               142427                       # Number of cycles rename is unblocking
system.cpu0.rename.UndoneMaps                   80818                       # Number of HB maps that are undone due to squashing
system.cpu0.rename.int_rename_lookups         3141030                       # Number of integer rename lookups
system.cpu0.rename.serializeStallCycles         63176                       # count of cycles rename stalled for serializing inst
system.cpu0.rename.serializingInsts              1613                       # count of serializing insts renamed
system.cpu0.rename.skidInsts                    38825                       # count of insts added to the skid buffer
system.cpu0.rename.tempSerializingInsts          1257                       # count of temporary serializing insts renamed
system.cpu0.rename.vec_rename_lookups          522787                       # Number of vector rename lookups
system.cpu0.rob.rob_reads                     4285749                       # The number of ROB reads
system.cpu0.rob.rob_writes                    4873635                       # The number of ROB writes
system.cpu0.timesIdled                           1962                       # Number of times that the entire CPU went into an idle state and unscheduled itself
system.cpu0.vec_regfile_reads                  521185                       # number of vector regfile reads
system.cpu0.vec_regfile_writes                 512137                       # number of vector regfile writes
system.cpu0.workload.numSyscalls                  925                       # Number of system calls
system.cpu1.branchPred.BTBCorrect                   0                       # Number of correct BTB predictions (this stat may not work properly.
system.cpu1.branchPred.BTBHitPct            99.937475                       # BTB Hit Percentage
system.cpu1.branchPred.BTBHits                 226966                       # Number of BTB hits
system.cpu1.branchPred.BTBLookups              227108                       # Number of BTB lookups
system.cpu1.branchPred.RASInCorrect                 0                       # Number of incorrect RAS predictions.
system.cpu1.branchPred.condIncorrect             6524                       # Number of conditional branches incorrect
system.cpu1.branchPred.condPredicted           445132                       # Number of conditional branches predicted
system.cpu1.branchPred.indirectHits                 6                       # Number of indirect target hits.
system.cpu1.branchPred.indirectLookups             18                       # Number of indirect predictor lookups.
system.cpu1.branchPred.indirectMisses              12                       # Number of indirect misses.
system.cpu1.branchPred.lookups                 458400                       # Number of BP lookups
system.cpu1.branchPred.usedRAS                   5553                       # Number of times the RAS was used to get a target.
system.cpu1.branchPredindirectMispredicted            8                       # Number of mispredicted indirect branches.
system.cpu1.cc_regfile_reads                  1260114                       # number of cc regfile reads
system.cpu1.cc_regfile_writes                 1260495                       # number of cc regfile writes
system.cpu1.commit.amos                          1346                       # Number of atomic instructions committed
system.cpu1.commit.branchMispredicts             6482                       # The number of times a branch was mispredicted
system.cpu1.commit.branches                    433006                       # Number of branches committed
system.cpu1.commit.bw_lim_events               120991                       # number cycles where commit BW limit reached
system.cpu1.commit.commitNonSpecStalls           3522                       # The number of times commit has been forced to stall to communicate backwards
system.cpu1.commit.commitSquashedInsts          33212                       # The number of squashed insts skipped by commit
system.cpu1.commit.committedInsts             2342322                       # Number of instructions committed
system.cpu1.commit.committedOps               2513794                       # Number of ops (including micro ops) committed
system.cpu1.commit.committed_per_cycle::samples      1997372                       # Number of insts commited each cycle
system.cpu1.commit.committed_per_cycle::mean     1.258551                       # Number of insts commited each cycle
system.cpu1.commit.committed_per_cycle::stdev     2.159947                       # Number of insts commited each cycle
system.cpu1.commit.committed_per_cycle::underflows            0      0.00%      0.00% # Number of insts commited each cycle
system.cpu1.commit.committed_per_cycle::0      1082923     54.22%     54.22% # Number of insts commited each cycle
system.cpu1.commit.committed_per_cycle::1       481013     24.08%     78.30% # Number of insts commited each cycle
system.cpu1.commit.committed_per_cycle::2       108877      5.45%     83.75% # Number of insts commited each cycle
system.cpu1.commit.committed_per_cycle::3        76742      3.84%     87.59% # Number of insts commited each cycle
system.cpu1.commit.committed_per_cycle::4        69288      3.47%     91.06% # Number of insts commited each cycle
system.cpu1.commit.committed_per_cycle::5        11603      0.58%     91.64% # Number of insts commited each cycle
system.cpu1.commit.committed_per_cycle::6        39839      1.99%     93.64% # Number of insts commited each cycle
system.cpu1.commit.committed_per_cycle::7         6096      0.31%     93.94% # Number of insts commited each cycle
system.cpu1.commit.committed_per_cycle::8       120991      6.06%    100.00% # Number of insts commited each cycle
system.cpu1.commit.committed_per_cycle::overflows            0      0.00%    100.00% # Number of insts commited each cycle
system.cpu1.commit.committed_per_cycle::min_value            0                       # Number of insts commited each cycle
system.cpu1.commit.committed_per_cycle::max_value            8                       # Number of insts commited each cycle
system.cpu1.commit.committed_per_cycle::total      1997372                       # Number of insts commited each cycle
system.cpu1.commit.fp_insts                         0                       # Number of committed floating point instructions.
system.cpu1.commit.function_calls                2774                       # Number of function calls committed.
system.cpu1.commit.int_insts                  2090130                       # Number of committed integer instructions.
system.cpu1.commit.loads                       379081                       # Number of loads committed
system.cpu1.commit.membars                       1391                       # Number of memory barriers committed
system.cpu1.commit.op_class_0::No_OpClass         1346      0.05%      0.05% # Class of committed instruction
system.cpu1.commit.op_class_0::IntAlu         1619612     64.43%     64.48% # Class of committed instruction
system.cpu1.commit.op_class_0::IntMult           5921      0.24%     64.72% # Class of committed instruction
system.cpu1.commit.op_class_0::IntDiv              11      0.00%     64.72% # Class of committed instruction
system.cpu1.commit.op_class_0::FloatAdd           384      0.02%     64.73% # Class of committed instruction
system.cpu1.commit.op_class_0::FloatCmp             0      0.00%     64.73% # Class of committed instruction
system.cpu1.commit.op_class_0::FloatCvt           384      0.02%     64.75% # Class of committed instruction
system.cpu1.commit.op_class_0::FloatMult            0      0.00%     64.75% # Class of committed instruction
system.cpu1.commit.op_class_0::FloatMultAcc          640      0.03%     64.77% # Class of committed instruction
system.cpu1.commit.op_class_0::FloatDiv           384      0.02%     64.79% # Class of committed instruction
system.cpu1.commit.op_class_0::FloatMisc            1      0.00%     64.79% # Class of committed instruction
system.cpu1.commit.op_class_0::FloatSqrt            0      0.00%     64.79% # Class of committed instruction
system.cpu1.commit.op_class_0::SimdAdd              0      0.00%     64.79% # Class of committed instruction
system.cpu1.commit.op_class_0::SimdAddAcc            0      0.00%     64.79% # Class of committed instruction
system.cpu1.commit.op_class_0::SimdAlu           5140      0.20%     64.99% # Class of committed instruction
system.cpu1.commit.op_class_0::SimdCmp              0      0.00%     64.99% # Class of committed instruction
system.cpu1.commit.op_class_0::SimdCvt              0      0.00%     64.99% # Class of committed instruction
system.cpu1.commit.op_class_0::SimdMisc            30      0.00%     65.00% # Class of committed instruction
system.cpu1.commit.op_class_0::SimdMult             0      0.00%     65.00% # Class of committed instruction
system.cpu1.commit.op_class_0::SimdMultAcc            0      0.00%     65.00% # Class of committed instruction
system.cpu1.commit.op_class_0::SimdShift            0      0.00%     65.00% # Class of committed instruction
system.cpu1.commit.op_class_0::SimdShiftAcc            0      0.00%     65.00% # Class of committed instruction
system.cpu1.commit.op_class_0::SimdDiv              0      0.00%     65.00% # Class of committed instruction
system.cpu1.commit.op_class_0::SimdSqrt             0      0.00%     65.00% # Class of committed instruction
system.cpu1.commit.op_class_0::SimdFloatAdd            0      0.00%     65.00% # Class of committed instruction
system.cpu1.commit.op_class_0::SimdFloatAlu            0      0.00%     65.00% # Class of committed instruction
system.cpu1.commit.op_class_0::SimdFloatCmp            0      0.00%     65.00% # Class of committed instruction
system.cpu1.commit.op_class_0::SimdFloatCvt            0      0.00%     65.00% # Class of committed instruction
system.cpu1.commit.op_class_0::SimdFloatDiv            0      0.00%     65.00% # Class of committed instruction
system.cpu1.commit.op_class_0::SimdFloatMisc            0      0.00%     65.00% # Class of committed instruction
system.cpu1.commit.op_class_0::SimdFloatMult            0      0.00%     65.00% # Class of committed instruction
system.cpu1.commit.op_class_0::SimdFloatMultAcc          640      0.03%     65.02% # Class of committed instruction
system.cpu1.commit.op_class_0::SimdFloatSqrt            0      0.00%     65.02% # Class of committed instruction
system.cpu1.commit.op_class_0::SimdReduceAdd            0      0.00%     65.02% # Class of committed instruction
system.cpu1.commit.op_class_0::SimdReduceAlu            0      0.00%     65.02% # Class of committed instruction
system.cpu1.commit.op_class_0::SimdReduceCmp            0      0.00%     65.02% # Class of committed instruction
system.cpu1.commit.op_class_0::SimdFloatReduceAdd            0      0.00%     65.02% # Class of committed instruction
system.cpu1.commit.op_class_0::SimdFloatReduceCmp            0      0.00%     65.02% # Class of committed instruction
system.cpu1.commit.op_class_0::SimdAes              0      0.00%     65.02% # Class of committed instruction
system.cpu1.commit.op_class_0::SimdAesMix            0      0.00%     65.02% # Class of committed instruction
system.cpu1.commit.op_class_0::SimdSha1Hash            0      0.00%     65.02% # Class of committed instruction
system.cpu1.commit.op_class_0::SimdSha1Hash2            0      0.00%     65.02% # Class of committed instruction
system.cpu1.commit.op_class_0::SimdSha256Hash            0      0.00%     65.02% # Class of committed instruction
system.cpu1.commit.op_class_0::SimdSha256Hash2            0      0.00%     65.02% # Class of committed instruction
system.cpu1.commit.op_class_0::SimdShaSigma2            0      0.00%     65.02% # Class of committed instruction
system.cpu1.commit.op_class_0::SimdShaSigma3            0      0.00%     65.02% # Class of committed instruction
system.cpu1.commit.op_class_0::SimdPredAlu            0      0.00%     65.02% # Class of committed instruction
system.cpu1.commit.op_class_0::MemRead         379081     15.08%     80.10% # Class of committed instruction
system.cpu1.commit.op_class_0::MemWrite        500220     19.90%    100.00% # Class of committed instruction
system.cpu1.commit.op_class_0::FloatMemRead            0      0.00%    100.00% # Class of committed instruction
system.cpu1.commit.op_class_0::FloatMemWrite            0      0.00%    100.00% # Class of committed instruction
system.cpu1.commit.op_class_0::IprAccess            0      0.00%    100.00% # Class of committed instruction
system.cpu1.commit.op_class_0::InstPrefetch            0      0.00%    100.00% # Class of committed instruction
system.cpu1.commit.op_class_0::total          2513794                       # Class of committed instruction
system.cpu1.commit.refs                        879301                       # Number of memory references committed
system.cpu1.commit.swp_count                        0                       # Number of s/w prefetches committed
system.cpu1.commit.vec_insts                   825011                       # Number of committed Vector instructions.
system.cpu1.committedInsts                    2341660                       # Number of Instructions Simulated
system.cpu1.committedOps                      2513132                       # Number of Ops (including micro ops) Simulated
system.cpu1.cpi                              0.858575                       # CPI: Cycles Per Instruction
system.cpu1.cpi_total                        0.858575                       # CPI: Total CPI of All Threads
system.cpu1.decode.BlockedCycles               213348                       # Number of cycles decode is blocked
system.cpu1.decode.BranchMispred                   42                       # Number of times decode detected a branch misprediction
system.cpu1.decode.BranchResolved              218475                       # Number of times decode resolved a branch
system.cpu1.decode.DecodedInsts               2586257                       # Number of instructions handled by decode
system.cpu1.decode.IdleCycles                  604509                       # Number of cycles decode is idle
system.cpu1.decode.RunCycles                  1162430                       # Number of cycles decode is running
system.cpu1.decode.SquashCycles                  7318                       # Number of cycles decode is squashing
system.cpu1.decode.SquashedInsts                21453                       # Number of squashed instructions handled by decode
system.cpu1.decode.UnblockCycles                18331                       # Number of cycles decode is unblocking
system.cpu1.dtb.accesses                            0                       # DTB accesses
system.cpu1.dtb.align_faults                        0                       # Number of TLB faults due to alignment restrictions
system.cpu1.dtb.domain_faults                       0                       # Number of TLB faults due to domain restrictions
system.cpu1.dtb.flush_entries                       0                       # Number of entries that have been flushed from TLB
system.cpu1.dtb.flush_tlb                           0                       # Number of times complete TLB was flushed
system.cpu1.dtb.flush_tlb_asid                      0                       # Number of times TLB was flushed by ASID
system.cpu1.dtb.flush_tlb_mva                       0                       # Number of times TLB was flushed by MVA
system.cpu1.dtb.flush_tlb_mva_asid                  0                       # Number of times TLB was flushed by MVA & ASID
system.cpu1.dtb.hits                                0                       # DTB hits
system.cpu1.dtb.inst_accesses                       0                       # ITB inst accesses
system.cpu1.dtb.inst_hits                           0                       # ITB inst hits
system.cpu1.dtb.inst_misses                         0                       # ITB inst misses
system.cpu1.dtb.misses                              0                       # DTB misses
system.cpu1.dtb.perms_faults                        0                       # Number of TLB faults due to permissions restrictions
system.cpu1.dtb.prefetch_faults                     0                       # Number of TLB faults due to prefetch
system.cpu1.dtb.read_accesses                       0                       # DTB read accesses
system.cpu1.dtb.read_hits                           0                       # DTB read hits
system.cpu1.dtb.read_misses                         0                       # DTB read misses
system.cpu1.dtb.stage2_mmu.stage2_tlb.accesses            0                       # DTB accesses
system.cpu1.dtb.stage2_mmu.stage2_tlb.align_faults            0                       # Number of TLB faults due to alignment restrictions
system.cpu1.dtb.stage2_mmu.stage2_tlb.domain_faults            0                       # Number of TLB faults due to domain restrictions
system.cpu1.dtb.stage2_mmu.stage2_tlb.flush_entries            0                       # Number of entries that have been flushed from TLB
system.cpu1.dtb.stage2_mmu.stage2_tlb.flush_tlb            0                       # Number of times complete TLB was flushed
system.cpu1.dtb.stage2_mmu.stage2_tlb.flush_tlb_asid            0                       # Number of times TLB was flushed by ASID
system.cpu1.dtb.stage2_mmu.stage2_tlb.flush_tlb_mva            0                       # Number of times TLB was flushed by MVA
system.cpu1.dtb.stage2_mmu.stage2_tlb.flush_tlb_mva_asid            0                       # Number of times TLB was flushed by MVA & ASID
system.cpu1.dtb.stage2_mmu.stage2_tlb.hits            0                       # DTB hits
system.cpu1.dtb.stage2_mmu.stage2_tlb.inst_accesses            0                       # ITB inst accesses
system.cpu1.dtb.stage2_mmu.stage2_tlb.inst_hits            0                       # ITB inst hits
system.cpu1.dtb.stage2_mmu.stage2_tlb.inst_misses            0                       # ITB inst misses
system.cpu1.dtb.stage2_mmu.stage2_tlb.misses            0                       # DTB misses
system.cpu1.dtb.stage2_mmu.stage2_tlb.perms_faults            0                       # Number of TLB faults due to permissions restrictions
system.cpu1.dtb.stage2_mmu.stage2_tlb.prefetch_faults            0                       # Number of TLB faults due to prefetch
system.cpu1.dtb.stage2_mmu.stage2_tlb.read_accesses            0                       # DTB read accesses
system.cpu1.dtb.stage2_mmu.stage2_tlb.read_hits            0                       # DTB read hits
system.cpu1.dtb.stage2_mmu.stage2_tlb.read_misses            0                       # DTB read misses
system.cpu1.dtb.stage2_mmu.stage2_tlb.walker.walkRequestOrigin_Requested::Data            0                       # Table walker requests started/completed, data/inst
system.cpu1.dtb.stage2_mmu.stage2_tlb.walker.walkRequestOrigin_Requested::Inst            0                       # Table walker requests started/completed, data/inst
system.cpu1.dtb.stage2_mmu.stage2_tlb.walker.walkRequestOrigin_Requested::total            0                       # Table walker requests started/completed, data/inst
system.cpu1.dtb.stage2_mmu.stage2_tlb.walker.walkRequestOrigin_Completed::Data            0                       # Table walker requests started/completed, data/inst
system.cpu1.dtb.stage2_mmu.stage2_tlb.walker.walkRequestOrigin_Completed::Inst            0                       # Table walker requests started/completed, data/inst
system.cpu1.dtb.stage2_mmu.stage2_tlb.walker.walkRequestOrigin_Completed::total            0                       # Table walker requests started/completed, data/inst
system.cpu1.dtb.stage2_mmu.stage2_tlb.walker.walkRequestOrigin::total            0                       # Table walker requests started/completed, data/inst
system.cpu1.dtb.stage2_mmu.stage2_tlb.walker.walks            0                       # Table walker walks requested
system.cpu1.dtb.stage2_mmu.stage2_tlb.write_accesses            0                       # DTB write accesses
system.cpu1.dtb.stage2_mmu.stage2_tlb.write_hits            0                       # DTB write hits
system.cpu1.dtb.stage2_mmu.stage2_tlb.write_misses            0                       # DTB write misses
system.cpu1.dtb.walker.walkRequestOrigin_Requested::Data            0                       # Table walker requests started/completed, data/inst
system.cpu1.dtb.walker.walkRequestOrigin_Requested::Inst            0                       # Table walker requests started/completed, data/inst
system.cpu1.dtb.walker.walkRequestOrigin_Requested::total            0                       # Table walker requests started/completed, data/inst
system.cpu1.dtb.walker.walkRequestOrigin_Completed::Data            0                       # Table walker requests started/completed, data/inst
system.cpu1.dtb.walker.walkRequestOrigin_Completed::Inst            0                       # Table walker requests started/completed, data/inst
system.cpu1.dtb.walker.walkRequestOrigin_Completed::total            0                       # Table walker requests started/completed, data/inst
system.cpu1.dtb.walker.walkRequestOrigin::total            0                       # Table walker requests started/completed, data/inst
system.cpu1.dtb.walker.walks                        0                       # Table walker walks requested
system.cpu1.dtb.write_accesses                      0                       # DTB write accesses
system.cpu1.dtb.write_hits                          0                       # DTB write hits
system.cpu1.dtb.write_misses                        0                       # DTB write misses
system.cpu1.fetch.Branches                     458400                       # Number of branches that fetch encountered
system.cpu1.fetch.CacheLines                   659310                       # Number of cache lines fetched
system.cpu1.fetch.Cycles                      1335110                       # Number of cycles fetch has run and was not squashing or blocked
system.cpu1.fetch.IcacheSquashes                 5040                       # Number of outstanding Icache misses that were squashed
system.cpu1.fetch.Insts                       2475258                       # Number of instructions fetch has processed
system.cpu1.fetch.MiscStallCycles                   1                       # Number of cycles fetch has spent waiting on interrupts, or bad addresses, or out of MSHRs
system.cpu1.fetch.PendingTrapStallCycles            8                       # Number of stall cycles due to pending traps
system.cpu1.fetch.SquashCycles                  14720                       # Number of cycles fetch has spent squashing
system.cpu1.fetch.branchRate                 0.228004                       # Number of branch fetches per cycle
system.cpu1.fetch.icacheStallCycles            663457                       # Number of cycles fetch is stalled on an Icache miss
system.cpu1.fetch.predictedBranches            232525                       # Number of branches that fetch has predicted taken
system.cpu1.fetch.rate                       1.231172                       # Number of inst fetches per cycle
system.cpu1.fetch.rateDist::samples           2005936                       # Number of instructions fetched each cycle (Total)
system.cpu1.fetch.rateDist::mean             1.326128                       # Number of instructions fetched each cycle (Total)
system.cpu1.fetch.rateDist::stdev            1.254220                       # Number of instructions fetched each cycle (Total)
system.cpu1.fetch.rateDist::underflows              0      0.00%      0.00% # Number of instructions fetched each cycle (Total)
system.cpu1.fetch.rateDist::0                  763132     38.04%     38.04% # Number of instructions fetched each cycle (Total)
system.cpu1.fetch.rateDist::1                  419664     20.92%     58.96% # Number of instructions fetched each cycle (Total)
system.cpu1.fetch.rateDist::2                  228957     11.41%     70.38% # Number of instructions fetched each cycle (Total)
system.cpu1.fetch.rateDist::3                  594183     29.62%    100.00% # Number of instructions fetched each cycle (Total)
system.cpu1.fetch.rateDist::overflows               0      0.00%    100.00% # Number of instructions fetched each cycle (Total)
[...]
system.cpu1.dcache.demand_mshr_hits::total       159730                       # number of demand (read+write) MSHR hits
system.cpu1.dcache.overall_mshr_hits::.cpu1.data       159730                       # number of overall MSHR hits
system.cpu1.dcache.overall_mshr_hits::total       159730                       # number of overall MSHR hits
system.cpu1.dcache.demand_mshr_misses::.cpu1.data        54358                       # number of demand (read+write) MSHR misses
system.cpu1.dcache.demand_mshr_misses::total        54358                       # number of demand (read+write) MSHR misses
system.cpu1.dcache.overall_mshr_misses::.cpu1.data        54358                       # number of overall MSHR misses
system.cpu1.dcache.overall_mshr_misses::total        54358                       # number of overall MSHR misses
system.cpu1.dcache.demand_mshr_miss_latency::.cpu1.data    626963965                       # number of demand (read+write) MSHR miss cycles
system.cpu1.dcache.demand_mshr_miss_latency::total    626963965                       # number of demand (read+write) MSHR miss cycles
system.cpu1.dcache.overall_mshr_miss_latency::.cpu1.data    626963965                       # number of overall MSHR miss cycles
system.cpu1.dcache.overall_mshr_miss_latency::total    626963965                       # number of overall MSHR miss cycles
system.cpu1.dcache.demand_mshr_miss_rate::.cpu1.data     0.061769                       # mshr miss rate for demand accesses
system.cpu1.dcache.demand_mshr_miss_rate::total     0.061769                       # mshr miss rate for demand accesses
system.cpu1.dcache.overall_mshr_miss_rate::.cpu1.data     0.061769                       # mshr miss rate for overall accesses
system.cpu1.dcache.overall_mshr_miss_rate::total     0.061769                       # mshr miss rate for overall accesses
system.cpu1.dcache.demand_avg_mshr_miss_latency::.cpu1.data 11533.977795                       # average overall mshr miss latency
system.cpu1.dcache.demand_avg_mshr_miss_latency::total 11533.977795                       # average overall mshr miss latency
system.cpu1.dcache.overall_avg_mshr_miss_latency::.cpu1.data 11533.977795                       # average overall mshr miss latency
system.cpu1.dcache.overall_avg_mshr_miss_latency::total 11533.977795                       # average overall mshr miss latency
system.cpu1.dcache.replacements                 50168                       # number of replacements
system.cpu1.dcache.ReadReq_hits::.cpu1.data       192211                       # number of ReadReq hits
system.cpu1.dcache.ReadReq_hits::total         192211                       # number of ReadReq hits
system.cpu1.dcache.ReadReq_misses::.cpu1.data       188857                       # number of ReadReq misses
system.cpu1.dcache.ReadReq_misses::total       188857                       # number of ReadReq misses
system.cpu1.dcache.ReadReq_miss_latency::.cpu1.data   1924511500                       # number of ReadReq miss cycles
system.cpu1.dcache.ReadReq_miss_latency::total   1924511500                       # number of ReadReq miss cycles
system.cpu1.dcache.ReadReq_accesses::.cpu1.data       381068                       # number of ReadReq accesses(hits+misses)
system.cpu1.dcache.ReadReq_accesses::total       381068                       # number of ReadReq accesses(hits+misses)
system.cpu1.dcache.ReadReq_miss_rate::.cpu1.data     0.495599                       # miss rate for ReadReq accesses
system.cpu1.dcache.ReadReq_miss_rate::total     0.495599                       # miss rate for ReadReq accesses
system.cpu1.dcache.ReadReq_avg_miss_latency::.cpu1.data 10190.310658                       # average ReadReq miss latency
system.cpu1.dcache.ReadReq_avg_miss_latency::total 10190.310658                       # average ReadReq miss latency
system.cpu1.dcache.ReadReq_mshr_hits::.cpu1.data       142015                       # number of ReadReq MSHR hits
system.cpu1.dcache.ReadReq_mshr_hits::total       142015                       # number of ReadReq MSHR hits
system.cpu1.dcache.ReadReq_mshr_misses::.cpu1.data        46842                       # number of ReadReq MSHR misses
system.cpu1.dcache.ReadReq_mshr_misses::total        46842                       # number of ReadReq MSHR misses
system.cpu1.dcache.ReadReq_mshr_miss_latency::.cpu1.data    482696000                       # number of ReadReq MSHR miss cycles
system.cpu1.dcache.ReadReq_mshr_miss_latency::total    482696000                       # number of ReadReq MSHR miss cycles
system.cpu1.dcache.ReadReq_mshr_miss_rate::.cpu1.data     0.122923                       # mshr miss rate for ReadReq accesses
system.cpu1.dcache.ReadReq_mshr_miss_rate::total     0.122923                       # mshr miss rate for ReadReq accesses
system.cpu1.dcache.ReadReq_avg_mshr_miss_latency::.cpu1.data 10304.769224                       # average ReadReq mshr miss latency
system.cpu1.dcache.ReadReq_avg_mshr_miss_latency::total 10304.769224                       # average ReadReq mshr miss latency
system.cpu1.dcache.WriteReq_hits::.cpu1.data       473723                       # number of WriteReq hits
system.cpu1.dcache.WriteReq_hits::total        473723                       # number of WriteReq hits
system.cpu1.dcache.WriteReq_misses::.cpu1.data        25231                       # number of WriteReq misses
system.cpu1.dcache.WriteReq_misses::total        25231                       # number of WriteReq misses
system.cpu1.dcache.WriteReq_miss_latency::.cpu1.data    436389386                       # number of WriteReq miss cycles
system.cpu1.dcache.WriteReq_miss_latency::total    436389386                       # number of WriteReq miss cycles
system.cpu1.dcache.WriteReq_accesses::.cpu1.data       498954                       # number of WriteReq accesses(hits+misses)
system.cpu1.dcache.WriteReq_accesses::total       498954                       # number of WriteReq accesses(hits+misses)
system.cpu1.dcache.WriteReq_miss_rate::.cpu1.data     0.050568                       # miss rate for WriteReq accesses
system.cpu1.dcache.WriteReq_miss_rate::total     0.050568                       # miss rate for WriteReq accesses
system.cpu1.dcache.WriteReq_avg_miss_latency::.cpu1.data 17295.762594                       # average WriteReq miss latency
system.cpu1.dcache.WriteReq_avg_miss_latency::total 17295.762594                       # average WriteReq miss latency
system.cpu1.dcache.WriteReq_mshr_hits::.cpu1.data        17715                       # number of WriteReq MSHR hits
system.cpu1.dcache.WriteReq_mshr_hits::total        17715                       # number of WriteReq MSHR hits
system.cpu1.dcache.WriteReq_mshr_misses::.cpu1.data         7516                       # number of WriteReq MSHR misses
system.cpu1.dcache.WriteReq_mshr_misses::total         7516                       # number of WriteReq MSHR misses
system.cpu1.dcache.WriteReq_mshr_miss_latency::.cpu1.data    144267965                       # number of WriteReq MSHR miss cycles
system.cpu1.dcache.WriteReq_mshr_miss_latency::total    144267965                       # number of WriteReq MSHR miss cycles
system.cpu1.dcache.WriteReq_mshr_miss_rate::.cpu1.data     0.015064                       # mshr miss rate for WriteReq accesses
system.cpu1.dcache.WriteReq_mshr_miss_rate::total     0.015064                       # mshr miss rate for WriteReq accesses
system.cpu1.dcache.WriteReq_avg_mshr_miss_latency::.cpu1.data 19194.779803                       # average WriteReq mshr miss latency
system.cpu1.dcache.WriteReq_avg_mshr_miss_latency::total 19194.779803                       # average WriteReq mshr miss latency
system.cpu1.dcache.SwapReq_hits::.cpu1.data           36                       # number of SwapReq hits
system.cpu1.dcache.SwapReq_hits::total             36                       # number of SwapReq hits
system.cpu1.dcache.SwapReq_misses::.cpu1.data         1310                       # number of SwapReq misses
system.cpu1.dcache.SwapReq_misses::total         1310                       # number of SwapReq misses
system.cpu1.dcache.SwapReq_miss_latency::.cpu1.data      6517000                       # number of SwapReq miss cycles
system.cpu1.dcache.SwapReq_miss_latency::total      6517000                       # number of SwapReq miss cycles
system.cpu1.dcache.SwapReq_accesses::.cpu1.data         1346                       # number of SwapReq accesses(hits+misses)
system.cpu1.dcache.SwapReq_accesses::total         1346                       # number of SwapReq accesses(hits+misses)
system.cpu1.dcache.SwapReq_miss_rate::.cpu1.data     0.973254                       # miss rate for SwapReq accesses
system.cpu1.dcache.SwapReq_miss_rate::total     0.973254                       # miss rate for SwapReq accesses
system.cpu1.dcache.SwapReq_avg_miss_latency::.cpu1.data  4974.809160                       # average SwapReq miss latency
system.cpu1.dcache.SwapReq_avg_miss_latency::total  4974.809160                       # average SwapReq miss latency
system.cpu1.dcache.SwapReq_mshr_misses::.cpu1.data         1310                       # number of SwapReq MSHR misses
system.cpu1.dcache.SwapReq_mshr_misses::total         1310                       # number of SwapReq MSHR misses
system.cpu1.dcache.SwapReq_mshr_miss_latency::.cpu1.data      5207000                       # number of SwapReq MSHR miss cycles
system.cpu1.dcache.SwapReq_mshr_miss_latency::total      5207000                       # number of SwapReq MSHR miss cycles
system.cpu1.dcache.SwapReq_mshr_miss_rate::.cpu1.data     0.973254                       # mshr miss rate for SwapReq accesses
system.cpu1.dcache.SwapReq_mshr_miss_rate::total     0.973254                       # mshr miss rate for SwapReq accesses
system.cpu1.dcache.SwapReq_avg_mshr_miss_latency::.cpu1.data  3974.809160                       # average SwapReq mshr miss latency
system.cpu1.dcache.SwapReq_avg_mshr_miss_latency::total  3974.809160                       # average SwapReq mshr miss latency
system.cpu1.dcache.tags.pwrStateResidencyTicks::UNDEFINED   1090743500                       # Cumulative time (in ticks) in various power states
system.cpu1.dcache.tags.tagsinuse           53.611862                       # Cycle average of tags in use
system.cpu1.dcache.tags.total_refs             722639                       # Total number of references to valid blocks.
system.cpu1.dcache.tags.sampled_refs            54406                       # Sample count of references to valid blocks.
system.cpu1.dcache.tags.avg_refs            13.282340                       # Average number of references to valid blocks.
system.cpu1.dcache.tags.warmup_cycle         63454500                       # Cycle when the warmup percentage was hit.
system.cpu1.dcache.tags.occ_blocks::.cpu1.data    53.611862                       # Average occupied blocks per requestor
system.cpu1.dcache.tags.occ_percent::.cpu1.data     0.837685                       # Average percentage of cache occupancy
system.cpu1.dcache.tags.occ_percent::total     0.837685                       # Average percentage of cache occupancy
system.cpu1.dcache.tags.occ_task_id_blocks::1024           11                       # Occupied blocks per task id
system.cpu1.dcache.tags.age_task_id_blocks_1024::1           11                       # Occupied blocks per task id
system.cpu1.dcache.tags.occ_task_id_percent::1024     0.171875                       # Percentage of cache occupancy per task id
system.cpu1.dcache.tags.tag_accesses          1817142                       # Number of tag accesses
system.cpu1.dcache.tags.data_accesses         1817142                       # Number of data accesses
system.cpu_clk_domain.clock                       500                       # Clock period in ticks
system.tol2bus.pwrStateResidencyTicks::UNDEFINED   1090743500                       # Cumulative time (in ticks) in various power states
system.tol2bus.trans_dist::ReadResp            191058                       # Transaction distribution
system.tol2bus.trans_dist::WritebackDirty        44436                       # Transaction distribution
system.tol2bus.trans_dist::WritebackClean         1280                       # Transaction distribution
system.tol2bus.trans_dist::CleanEvict          164168                       # Transaction distribution
system.tol2bus.trans_dist::UpgradeReq            6073                       # Transaction distribution
system.tol2bus.trans_dist::UpgradeResp           6073                       # Transaction distribution
system.tol2bus.trans_dist::ReadExReq            30621                       # Transaction distribution
system.tol2bus.trans_dist::ReadExResp           30621                       # Transaction distribution
system.tol2bus.trans_dist::ReadCleanReq          1991                       # Transaction distribution
system.tol2bus.trans_dist::ReadSharedReq       189069                       # Transaction distribution
system.tol2bus.trans_dist::InvalidateReq           22                       # Transaction distribution
system.tol2bus.trans_dist::InvalidateResp           22                       # Transaction distribution
system.tol2bus.pkt_count_system.cpu0.icache.mem_side::system.l2.cpu_side         4822                       # Packet count per connected master and slave (bytes)
system.tol2bus.pkt_count_system.cpu0.dcache.mem_side::system.l2.cpu_side       158728                       # Packet count per connected master and slave (bytes)
system.tol2bus.pkt_count_system.cpu1.icache.mem_side::system.l2.cpu_side          142                       # Packet count per connected master and slave (bytes)
system.tol2bus.pkt_count_system.cpu1.dcache.mem_side::system.l2.cpu_side       142904                       # Packet count per connected master and slave (bytes)
system.tol2bus.pkt_count_system.cpu2.icache.mem_side::system.l2.cpu_side          146                       # Packet count per connected master and slave (bytes)
system.tol2bus.pkt_count_system.cpu2.dcache.mem_side::system.l2.cpu_side       143471                       # Packet count per connected master and slave (bytes)
system.tol2bus.pkt_count_system.cpu3.icache.mem_side::system.l2.cpu_side          150                       # Packet count per connected master and slave (bytes)
system.tol2bus.pkt_count_system.cpu3.dcache.mem_side::system.l2.cpu_side       141945                       # Packet count per connected master and slave (bytes)
system.tol2bus.pkt_count::total                592308                       # Packet count per connected master and slave (bytes)
system.tol2bus.pkt_size_system.cpu0.icache.mem_side::system.l2.cpu_side       195200                       # Cumulative packet size per connected master and slave (bytes)
system.tol2bus.pkt_size_system.cpu0.dcache.mem_side::system.l2.cpu_side      4033600                       # Cumulative packet size per connected master and slave (bytes)
system.tol2bus.pkt_size_system.cpu1.icache.mem_side::system.l2.cpu_side         4544                       # Cumulative packet size per connected master and slave (bytes)
system.tol2bus.pkt_size_system.cpu1.dcache.mem_side::system.l2.cpu_side      2916608                       # Cumulative packet size per connected master and slave (bytes)
system.tol2bus.pkt_size_system.cpu2.icache.mem_side::system.l2.cpu_side         4672                       # Cumulative packet size per connected master and slave (bytes)
system.tol2bus.pkt_size_system.cpu2.dcache.mem_side::system.l2.cpu_side      2901632                       # Cumulative packet size per connected master and slave (bytes)
system.tol2bus.pkt_size_system.cpu3.icache.mem_side::system.l2.cpu_side         4800                       # Cumulative packet size per connected master and slave (bytes)
system.tol2bus.pkt_size_system.cpu3.dcache.mem_side::system.l2.cpu_side      2798592                       # Cumulative packet size per connected master and slave (bytes)
system.tol2bus.pkt_size::total               12859648                       # Cumulative packet size per connected master and slave (bytes)
system.tol2bus.snoops                           73126                       # Total snoops (count)
system.tol2bus.snoopTraffic                   4253632                       # Total snoop traffic (bytes)
system.tol2bus.snoop_fanout::samples           232394                       # Request fanout histogram
system.tol2bus.snoop_fanout::mean            1.582261                       # Request fanout histogram
system.tol2bus.snoop_fanout::stdev           1.096722                       # Request fanout histogram
system.tol2bus.snoop_fanout::underflows             0      0.00%      0.00% # Request fanout histogram
system.tol2bus.snoop_fanout::0                  50324     21.65%     21.65% # Request fanout histogram
system.tol2bus.snoop_fanout::1                  57493     24.74%     46.39% # Request fanout histogram
system.tol2bus.snoop_fanout::2                  63629     27.38%     73.77% # Request fanout histogram
system.tol2bus.snoop_fanout::3                  60835     26.18%     99.95% # Request fanout histogram
system.tol2bus.snoop_fanout::4                    113      0.05%    100.00% # Request fanout histogram
system.tol2bus.snoop_fanout::5                      0      0.00%    100.00% # Request fanout histogram
system.tol2bus.snoop_fanout::6                      0      0.00%    100.00% # Request fanout histogram
system.tol2bus.snoop_fanout::7                      0      0.00%    100.00% # Request fanout histogram
system.tol2bus.snoop_fanout::8                      0      0.00%    100.00% # Request fanout histogram
system.tol2bus.snoop_fanout::overflows              0      0.00%    100.00% # Request fanout histogram
system.tol2bus.snoop_fanout::min_value              0                       # Request fanout histogram
system.tol2bus.snoop_fanout::max_value              4                       # Request fanout histogram
system.tol2bus.snoop_fanout::total             232394                       # Request fanout histogram
system.tol2bus.reqLayer0.occupancy          260961357                       # Layer occupancy (ticks)
system.tol2bus.reqLayer0.utilization             23.9                       # Layer utilization (%)
system.tol2bus.respLayer8.occupancy            113987                       # Layer occupancy (ticks)
system.tol2bus.respLayer8.utilization             0.0                       # Layer utilization (%)
system.tol2bus.respLayer13.occupancy         82873493                       # Layer occupancy (ticks)
system.tol2bus.respLayer13.utilization            7.6                       # Layer utilization (%)
system.tol2bus.respLayer12.occupancy           119974                       # Layer occupancy (ticks)
system.tol2bus.respLayer12.utilization            0.0                       # Layer utilization (%)
system.tol2bus.respLayer1.occupancy          86564786                       # Layer occupancy (ticks)
system.tol2bus.respLayer1.utilization             7.9                       # Layer utilization (%)
system.tol2bus.respLayer0.occupancy           2663467                       # Layer occupancy (ticks)
system.tol2bus.respLayer0.utilization             0.2                       # Layer utilization (%)
system.tol2bus.respLayer5.occupancy          83053431                       # Layer occupancy (ticks)
system.tol2bus.respLayer5.utilization             7.6                       # Layer utilization (%)
system.tol2bus.respLayer4.occupancy            116469                       # Layer occupancy (ticks)
system.tol2bus.respLayer4.utilization             0.0                       # Layer utilization (%)
system.tol2bus.respLayer9.occupancy          83311611                       # Layer occupancy (ticks)
system.tol2bus.respLayer9.utilization             7.6                       # Layer utilization (%)

---------- End Simulation Statistics   ----------
